20
04/14/2016 09:25, XYZ structure generated by mol3D Class, molSimplify
Cr 	0.000000	0.000000	0.000000
O 	0.000000	0.000000	2.090000
H 	0.782547	0.027327	2.696198
H 	-0.782547	-0.027327	2.696184
N 	-1.555635	1.555635	0.000000
H 	-2.062657	1.578085	0.912847
H 	-1.140097	2.500375	-0.159648
H 	-2.258063	1.382357	-0.753199
N 	-1.555635	-1.555635	0.000000
H 	-1.133164	-2.507578	-0.078657
H 	-2.115646	-1.524827	0.880984
H 	-2.212008	-1.428412	-0.802327
N 	1.555635	-1.555635	-0.000000
H 	2.509566	-1.131176	0.026757
H 	1.459280	-2.181193	0.830715
H 	1.491972	-2.148449	-0.857472
N 	1.555635	1.555635	-0.000000
H 	1.776333	1.864409	0.973045
H 	2.438123	1.202350	-0.432549
H 	1.246362	2.394059	-0.540496
