83
11/21/2016 11:29, XYZ structure generated by mol3D Class, molSimplify
Ti 	7.771303	0.000000	0.000000
Ti 	9.169823	0.000000	3.516292
Ti 	10.568342	0.000000	7.032585
Ti 	7.771303	3.784200	0.000000
Ti 	9.169823	3.784200	3.516292
Ti 	10.568342	3.784200	7.032585
Ti 	7.771303	7.568400	0.000000
Ti 	9.169823	7.568400	3.516292
Ti 	10.568342	7.568400	7.032585
O 	5.931491	0.000000	0.731740
O 	7.330011	0.000000	4.248033
O 	8.728530	0.000000	7.764325
O 	5.931491	3.784200	0.731740
O 	7.330011	3.784200	4.248033
O 	8.728530	3.784200	7.764325
O 	5.931491	7.568400	0.731740
O 	7.330011	7.568400	4.248033
O 	8.728530	7.568400	7.764325
Ti 	4.050063	1.892100	3.516292
Ti 	5.448582	1.892100	7.032585
Ti 	4.050063	5.676300	3.516292
Ti 	5.448582	5.676300	7.032585
Ti 	4.050063	9.460500	3.516292
Ti 	5.448582	9.460500	7.032585
Ti 	5.561053	1.892100	0.879073
Ti 	6.959573	1.892100	4.395365
Ti 	8.358092	1.892100	7.911658
Ti 	5.561053	5.676300	0.879073
Ti 	6.959573	5.676300	4.395365
Ti 	8.358092	5.676300	7.911658
Ti 	5.561053	9.460500	0.879073
Ti 	6.959573	9.460500	4.395365
Ti 	8.358092	9.460500	7.911658
Ti 	1.839812	0.000000	4.395365
Ti 	3.238332	0.000000	7.911658
Ti 	1.839812	3.784200	4.395365
Ti 	3.238332	3.784200	7.911658
Ti 	1.839812	7.568400	4.395365
Ti 	3.238332	7.568400	7.911658
O 	2.210250	1.892100	4.248033
O 	3.608770	1.892100	7.764325
O 	2.210250	5.676300	4.248033
O 	3.608770	5.676300	7.764325
O 	2.210250	9.460500	4.248033
O 	3.608770	9.460500	7.764325
O 	3.721241	1.892100	1.610813
O 	5.119760	1.892100	5.127106
O 	3.721241	5.676300	1.610813
O 	5.119760	5.676300	5.127106
O 	3.721241	9.460500	1.610813
O 	5.119760	9.460500	5.127106
O 	0.000000	0.000000	5.127106
O 	0.000000	3.784200	5.127106
O 	0.000000	7.568400	5.127106
O 	3.679625	0.000000	3.663625
O 	5.078144	0.000000	7.179917
O 	3.679625	3.784200	3.663625
O 	5.078144	3.784200	7.179917
O 	3.679625	7.568400	3.663625
O 	5.078144	7.568400	7.179917
O 	7.400865	1.892100	0.147333
O 	8.799385	1.892100	3.663625
O 	10.197904	1.892100	7.179918
O 	7.400865	5.676300	0.147333
O 	8.799385	5.676300	3.663625
O 	10.197904	5.676300	7.179918
O 	7.400865	9.460500	0.147333
O 	8.799385	9.460500	3.663625
O 	10.197904	9.460500	7.179918
O 	5.889875	1.892100	2.784552
O 	7.288394	1.892100	6.300844
O 	5.889875	5.676300	2.784552
O 	7.288394	5.676300	6.300844
O 	5.889875	9.460500	2.784552
O 	7.288394	9.460500	6.300844
O 	0.770115	0.000000	2.784552
O 	2.168634	0.000000	6.300844
O 	0.770115	3.784200	2.784552
O 	2.168634	3.784200	6.300844
O 	0.770115	7.568400	2.784552
O 	2.168634	7.568400	6.300844
C 	2.210250	1.892100	4.998033
O 	1.011455	1.914764	5.708804
