50
11/04/2016 17:57, XYZ structure generated by mol3D Class, molSimplify
Ti 	0.000000	0.000000	0.000000
Ti 	0.000000	3.784200	0.000000
Ti 	3.784200	0.000000	0.000000
Ti 	3.784200	3.784200	0.000000
O 	0.000000	1.892100	0.398660
O 	0.000000	5.676300	0.398660
O 	3.784200	1.892100	0.398660
O 	3.784200	5.676300	0.398660
O 	0.000000	0.000000	1.979990
O 	0.000000	3.784200	1.979990
O 	3.784200	0.000000	1.979990
O 	3.784200	3.784200	1.979990
Ti 	0.000000	1.892100	2.378650
Ti 	0.000000	5.676300	2.378650
Ti 	3.784200	1.892100	2.378650
Ti 	3.784200	5.676300	2.378650
O 	1.892100	1.892100	2.777310
O 	1.892100	5.676300	2.777310
O 	5.676300	1.892100	2.777310
O 	5.676300	5.676300	2.777310
O 	0.000000	1.892098	4.357131
O 	0.000000	5.676302	4.357131
O 	3.784200	1.892098	4.357124
O 	3.784200	5.676302	4.357124
Ti 	1.892099	1.892102	4.805060
Ti 	1.892099	5.676298	4.805060
Ti 	5.676301	1.892102	4.805060
Ti 	5.676301	5.676298	4.805060
O 	1.892098	0.000000	5.231022
O 	1.892099	3.784200	5.231022
O 	5.676302	0.000000	5.231022
O 	5.676301	3.784200	5.231022
O 	1.892102	1.892101	6.778838
O 	1.892102	5.676299	6.778838
O 	5.676298	1.892101	6.778838
O 	5.676298	5.676299	6.778838
Ti 	1.892099	0.000000	7.168659
Ti 	1.892099	3.784200	7.168664
Ti 	5.676301	0.000000	7.168659
Ti 	5.676301	3.784200	7.168664
O 	0.000000	0.000000	7.678586
O 	0.000000	3.784200	7.678586
O 	3.784200	0.000000	7.678588
O 	3.784200	3.784200	7.678588
Mo 	1.892099	3.784200	10.819118
O 	0.345518	2.290684	10.819118
O 	3.385615	2.237619	10.819118
O 	3.438680	5.277716	10.819118
O 	0.398584	5.330781	10.819118
O 	1.892099	3.784200	8.669118
