154
10/25/2016 10:38, XYZ structure generated by mol3D Class, molSimplify
Si 	2.309045	0.000000	0.000000
Si 	2.309045	0.000000	5.405400
Si 	-0.148955	4.257381	0.000000
Si 	-0.148955	4.257381	5.405400
Si 	-2.606955	8.514762	0.000000
Si 	-2.606955	8.514762	5.405400
Si 	7.225045	0.000000	0.000000
Si 	7.225045	0.000000	5.405400
Si 	4.767045	4.257381	0.000000
Si 	4.767045	4.257381	5.405400
Si 	2.309045	8.514762	0.000000
Si 	2.309045	8.514762	5.405400
Si 	12.141045	0.000000	0.000000
Si 	12.141045	0.000000	5.405400
Si 	9.683045	4.257381	0.000000
Si 	9.683045	4.257381	5.405400
Si 	7.225045	8.514762	0.000000
Si 	7.225045	8.514762	5.405400
O 	1.376726	1.136295	0.643783
O 	1.376726	1.136295	6.049183
O 	-1.081274	5.393676	0.643783
O 	-1.081274	5.393676	6.049183
O 	-3.539274	9.651057	0.643783
O 	-3.539274	9.651057	6.049183
O 	6.292726	1.136295	0.643783
O 	6.292726	1.136295	6.049183
O 	3.834726	5.393676	0.643783
O 	3.834726	5.393676	6.049183
O 	1.376726	9.651057	0.643783
O 	1.376726	9.651057	6.049183
O 	11.208726	1.136295	0.643783
O 	11.208726	1.136295	6.049183
O 	8.750726	5.393676	0.643783
O 	8.750726	5.393676	6.049183
O 	6.292726	9.651057	0.643783
O 	6.292726	9.651057	6.049183
Si 	-1.154523	1.999691	3.603600
Si 	-3.612523	6.257072	3.603600
Si 	-6.070523	10.514453	3.603600
Si 	3.761477	1.999691	3.603600
Si 	1.303477	6.257072	3.603600
Si 	-1.154523	10.514453	3.603600
Si 	8.677477	1.999691	3.603600
Si 	6.219477	6.257072	3.603600
Si 	3.761477	10.514453	3.603600
Si 	1.303477	2.257689	1.801800
Si 	-1.154523	6.515070	1.801800
Si 	-3.612523	10.772451	1.801800
Si 	6.219477	2.257689	1.801800
Si 	3.761477	6.515070	1.801800
Si 	1.303477	10.772451	1.801800
Si 	11.135477	2.257689	1.801800
Si 	8.677477	6.515070	1.801800
Si 	6.219477	10.772451	1.801800
Si 	-1.154523	1.999692	0.000000
Si 	-1.154523	1.999692	5.405400
Si 	-3.612523	6.257073	0.000000
Si 	-3.612523	6.257073	5.405400
Si 	-6.070523	10.514453	0.000000
Si 	-6.070523	10.514453	5.405400
Si 	3.761477	1.999692	0.000000
Si 	3.761477	1.999692	5.405400
Si 	1.303477	6.257073	0.000000
Si 	1.303477	6.257073	5.405400
Si 	-1.154523	10.514453	0.000000
Si 	-1.154523	10.514453	5.405400
Si 	8.677477	1.999692	0.000000
Si 	8.677477	1.999692	5.405400
Si 	6.219477	6.257073	0.000000
Si 	6.219477	6.257073	5.405400
Si 	3.761477	10.514453	0.000000
Si 	3.761477	10.514453	5.405400
Si 	2.309045	-0.000000	1.801800
Si 	-0.148955	4.257381	1.801800
Si 	-2.606955	8.514762	1.801800
Si 	7.225045	-0.000000	1.801800
Si 	4.767045	4.257381	1.801800
Si 	2.309045	8.514762	1.801800
Si 	12.141045	-0.000000	1.801800
Si 	9.683045	4.257381	1.801800
Si 	7.225045	8.514762	1.801800
Si 	1.303477	2.257689	3.603600
Si 	-1.154523	6.515070	3.603600
Si 	-3.612523	10.772451	3.603600
Si 	6.219477	2.257689	3.603600
Si 	3.761477	6.515070	3.603600
Si 	1.303477	10.772451	3.603600
Si 	11.135477	2.257689	3.603600
Si 	8.677477	6.515070	3.603600
Si 	6.219477	10.772451	3.603600
O 	3.243576	0.624132	4.247383
O 	0.785576	4.881513	4.247383
O 	-1.672424	9.138894	4.247383
O 	8.159576	0.624132	4.247383
O 	5.701576	4.881513	4.247383
O 	3.243576	9.138894	4.247383
O 	13.075576	0.624132	4.247383
O 	10.617576	4.881513	4.247383
O 	8.159576	9.138894	4.247383
O 	2.753697	2.496953	2.445583
O 	0.295697	6.754334	2.445583
O 	-2.162303	11.011715	2.445583
O 	7.669697	2.496953	2.445583
O 	5.211697	6.754334	2.445583
O 	2.753697	11.011715	2.445583
O 	12.585697	2.496953	2.445583
O 	10.127697	6.754334	2.445583
O 	7.669697	11.011715	2.445583
O 	0.295697	1.760427	4.761617
O 	-2.162303	6.017808	4.761617
O 	-4.620303	10.275189	4.761617
O 	5.211697	1.760427	4.761617
O 	2.753697	6.017808	4.761617
O 	0.295697	10.275189	4.761617
O 	10.127697	1.760427	4.761617
O 	7.669697	6.017808	4.761617
O 	5.211697	10.275189	4.761617
O 	-1.081274	3.121086	1.158017
O 	-1.081274	3.121086	6.563417
O 	-3.539274	7.378467	1.158017
O 	-3.539274	7.378467	6.563417
O 	-5.997274	11.635847	1.158017
O 	-5.997274	11.635847	6.563417
O 	3.834726	3.121086	1.158017
O 	3.834726	3.121086	6.563417
O 	1.376726	7.378467	1.158017
O 	1.376726	7.378467	6.563417
O 	-1.081274	11.635847	1.158017
O 	-1.081274	11.635847	6.563417
O 	8.750726	3.121086	1.158017
O 	8.750726	3.121086	6.563417
O 	6.292726	7.378467	1.158017
O 	6.292726	7.378467	6.563417
O 	3.834726	11.635847	1.158017
O 	3.834726	11.635847	6.563417
O 	0.785576	3.633248	2.959817
O 	-1.672424	7.890629	2.959817
O 	-4.130424	12.148010	2.959817
O 	5.701576	3.633248	2.959817
O 	3.243576	7.890629	2.959817
O 	0.785576	12.148010	2.959817
O 	10.617576	3.633248	2.959817
O 	8.159576	7.890629	2.959817
O 	5.701576	12.148010	2.959817
Mn 	1.376726	8.514762	7.806628
N 	3.510449	8.237960	8.214925
H 	4.229191	8.993829	8.267538
H 	3.989248	7.326740	8.391467
N 	0.095319	6.774345	7.453011
H 	0.369025	5.902138	6.948002
H 	-0.897573	6.669753	7.759553
N 	0.524410	10.531979	7.828816
H 	-0.123804	10.917331	8.551322
H 	0.694267	11.278779	7.118761
