19
11/23/2016 16:48, XYZ structure generated by mol3D Class, molSimplify
Fe 	0.268599	-0.000094	0.000074
N 	0.001753	2.163073	0.207359
H 	0.523468	2.713319	-0.484082
H 	-0.970762	2.468941	0.106176
H 	0.292174	2.523380	1.123132
N 	-1.877437	-0.233322	-0.369855
H 	-2.160630	-1.203188	-0.538519
H 	-2.462603	0.076430	0.414076
H 	-2.215406	0.284584	-1.188664
N 	0.535362	-2.163305	-0.206044
H 	0.250856	-2.522852	-1.123981
H 	1.506948	-2.469927	-0.098398
H 	0.008684	-2.713661	0.481531
N 	2.414916	0.233563	0.368477
H 	2.699159	1.204476	0.529133
H 	2.751590	-0.277861	1.191900
H 	3.000337	-0.083556	-0.412291
O 	0.268599	-0.000094	3.000099
O 	0.268599	-0.000094	4.215348
