101
10/21/2016 15:37, XYZ structure generated by mol3D Class, molSimplify
Ti 	0.000000	0.000000	0.000000
Ti 	0.000000	3.784200	0.000000
Ti 	0.000000	7.568400	0.000000
Ti 	3.784200	0.000000	0.000000
Ti 	3.784200	3.784200	0.000000
Ti 	3.784200	7.568400	0.000000
Ti 	7.568400	0.000000	0.000000
Ti 	7.568400	3.784200	0.000000
Ti 	7.568400	7.568400	0.000000
O 	-0.000000	-0.000000	1.979988
O 	-0.000000	3.784200	1.979988
O 	-0.000000	7.568400	1.979988
O 	3.784200	-0.000000	1.979988
O 	3.784200	3.784200	1.979988
O 	3.784200	7.568400	1.979988
O 	7.568400	-0.000000	1.979988
O 	7.568400	3.784200	1.979988
O 	7.568400	7.568400	1.979988
Ti 	1.892100	1.892100	4.757300
Ti 	1.892100	5.676300	4.757300
Ti 	1.892100	9.460500	4.757300
Ti 	5.676300	1.892100	4.757300
Ti 	5.676300	5.676300	4.757300
Ti 	5.676300	9.460500	4.757300
Ti 	9.460500	1.892100	4.757300
Ti 	9.460500	5.676300	4.757300
Ti 	9.460500	9.460500	4.757300
Ti 	-0.000000	1.892100	2.378650
Ti 	-0.000000	5.676300	2.378650
Ti 	-0.000000	9.460500	2.378650
Ti 	3.784200	1.892100	2.378650
Ti 	3.784200	5.676300	2.378650
Ti 	3.784200	9.460500	2.378650
Ti 	7.568400	1.892100	2.378650
Ti 	7.568400	5.676300	2.378650
Ti 	7.568400	9.460500	2.378650
Ti 	1.892100	-0.000000	7.135950
Ti 	1.892100	3.784200	7.135950
Ti 	1.892100	7.568400	7.135950
Ti 	5.676300	-0.000000	7.135950
Ti 	5.676300	3.784200	7.135950
Ti 	5.676300	7.568400	7.135950
Ti 	9.460500	-0.000000	7.135950
Ti 	9.460500	3.784200	7.135950
Ti 	9.460500	7.568400	7.135950
O 	1.892100	1.892100	6.737288
O 	1.892100	5.676300	6.737288
O 	1.892100	9.460500	6.737288
O 	5.676300	1.892100	6.737288
O 	5.676300	5.676300	6.737288
O 	5.676300	9.460500	6.737288
O 	9.460500	1.892100	6.737288
O 	9.460500	5.676300	6.737288
O 	9.460500	9.460500	6.737288
O 	-0.000000	1.892100	4.358638
O 	-0.000000	5.676300	4.358638
O 	-0.000000	9.460500	4.358638
O 	3.784200	1.892100	4.358638
O 	3.784200	5.676300	4.358638
O 	3.784200	9.460500	4.358638
O 	7.568400	1.892100	4.358638
O 	7.568400	5.676300	4.358638
O 	7.568400	9.460500	4.358638
O 	1.892100	-0.000000	5.155962
O 	1.892100	3.784200	5.155962
O 	1.892100	7.568400	5.155962
O 	5.676300	-0.000000	5.155962
O 	5.676300	3.784200	5.155962
O 	5.676300	7.568400	5.155962
O 	9.460500	-0.000000	5.155962
O 	9.460500	3.784200	5.155962
O 	9.460500	7.568400	5.155962
O 	-0.000000	1.892100	0.398662
O 	-0.000000	5.676300	0.398662
O 	-0.000000	9.460500	0.398662
O 	3.784200	1.892100	0.398662
O 	3.784200	5.676300	0.398662
O 	3.784200	9.460500	0.398662
O 	7.568400	1.892100	0.398662
O 	7.568400	5.676300	0.398662
O 	7.568400	9.460500	0.398662
O 	1.892100	1.892100	2.777312
O 	1.892100	5.676300	2.777312
O 	1.892100	9.460500	2.777312
O 	5.676300	1.892100	2.777312
O 	5.676300	5.676300	2.777312
O 	5.676300	9.460500	2.777312
O 	9.460500	1.892100	2.777312
O 	9.460500	5.676300	2.777312
O 	9.460500	9.460500	2.777312
O 	-0.000000	-0.000000	7.534612
O 	-0.000000	3.784200	7.534612
O 	-0.000000	7.568400	7.534612
O 	3.784200	-0.000000	7.534612
O 	3.784200	3.784200	7.534612
O 	3.784200	7.568400	7.534612
O 	7.568400	-0.000000	7.534612
O 	7.568400	3.784200	7.534612
O 	7.568400	7.568400	7.534612
C 	5.676300	5.676300	11.381824
O 	5.676300	5.676300	10.014824
