133
05/31/2016 16:15, XYZ structure generated by mol3D Class, molSimplify
Au 	0.000000	0.000000	0.000000
Au 	0.000000	0.000000	4.079600
Au 	0.000000	4.079600	0.000000
Au 	0.000000	4.079600	4.079600
Au 	0.000000	8.159200	0.000000
Au 	0.000000	8.159200	4.079600
Au 	0.000000	12.238800	0.000000
Au 	0.000000	12.238800	4.079600
Au 	4.079600	0.000000	0.000000
Au 	4.079600	0.000000	4.079600
Au 	4.079600	4.079600	0.000000
Au 	4.079600	4.079600	4.079600
Au 	4.079600	8.159200	0.000000
Au 	4.079600	8.159200	4.079600
Au 	4.079600	12.238800	0.000000
Au 	4.079600	12.238800	4.079600
Au 	8.159200	0.000000	0.000000
Au 	8.159200	0.000000	4.079600
Au 	8.159200	4.079600	0.000000
Au 	8.159200	4.079600	4.079600
Au 	8.159200	8.159200	0.000000
Au 	8.159200	8.159200	4.079600
Au 	8.159200	12.238800	0.000000
Au 	8.159200	12.238800	4.079600
Au 	12.238800	0.000000	0.000000
Au 	12.238800	0.000000	4.079600
Au 	12.238800	4.079600	0.000000
Au 	12.238800	4.079600	4.079600
Au 	12.238800	8.159200	0.000000
Au 	12.238800	8.159200	4.079600
Au 	12.238800	12.238800	0.000000
Au 	12.238800	12.238800	4.079600
Au 	-0.000000	2.039800	2.039800
Au 	-0.000000	6.119400	2.039800
Au 	-0.000000	10.199000	2.039800
Au 	-0.000000	14.278600	2.039800
Au 	4.079600	2.039800	2.039800
Au 	4.079600	6.119400	2.039800
Au 	4.079600	10.199000	2.039800
Au 	4.079600	14.278600	2.039800
Au 	8.159200	2.039800	2.039800
Au 	8.159200	6.119400	2.039800
Au 	8.159200	10.199000	2.039800
Au 	8.159200	14.278600	2.039800
Au 	12.238800	2.039800	2.039800
Au 	12.238800	6.119400	2.039800
Au 	12.238800	10.199000	2.039800
Au 	12.238800	14.278600	2.039800
Au 	2.039800	-0.000000	2.039800
Au 	2.039800	4.079600	2.039800
Au 	2.039800	8.159200	2.039800
Au 	2.039800	12.238800	2.039800
Au 	6.119400	-0.000000	2.039800
Au 	6.119400	4.079600	2.039800
Au 	6.119400	8.159200	2.039800
Au 	6.119400	12.238800	2.039800
Au 	10.199000	-0.000000	2.039800
Au 	10.199000	4.079600	2.039800
Au 	10.199000	8.159200	2.039800
Au 	10.199000	12.238800	2.039800
Au 	14.278600	-0.000000	2.039800
Au 	14.278600	4.079600	2.039800
Au 	14.278600	8.159200	2.039800
Au 	14.278600	12.238800	2.039800
Au 	2.039800	2.039800	0.000000
Au 	2.039800	2.039800	4.079600
Au 	2.039800	6.119400	0.000000
Au 	2.039800	6.119400	4.079600
Au 	2.039800	10.199000	0.000000
Au 	2.039800	10.199000	4.079600
Au 	2.039800	14.278600	0.000000
Au 	2.039800	14.278600	4.079600
Au 	6.119400	2.039800	0.000000
Au 	6.119400	2.039800	4.079600
Au 	6.119400	6.119400	0.000000
Au 	6.119400	6.119400	4.079600
Au 	6.119400	10.199000	0.000000
Au 	6.119400	10.199000	4.079600
Au 	6.119400	14.278600	0.000000
Au 	6.119400	14.278600	4.079600
Au 	10.199000	2.039800	0.000000
Au 	10.199000	2.039800	4.079600
Au 	10.199000	6.119400	0.000000
Au 	10.199000	6.119400	4.079600
Au 	10.199000	10.199000	0.000000
Au 	10.199000	10.199000	4.079600
Au 	10.199000	14.278600	0.000000
Au 	10.199000	14.278600	4.079600
Au 	14.278600	2.039800	0.000000
Au 	14.278600	2.039800	4.079600
Au 	14.278600	6.119400	0.000000
Au 	14.278600	6.119400	4.079600
Au 	14.278600	10.199000	0.000000
Au 	14.278600	10.199000	4.079600
Au 	14.278600	14.278600	0.000000
Au 	14.278600	14.278600	4.079600
Co 	8.159203	8.159268	17.554963
N 	6.532984	6.882161	17.554162
N 	6.883578	9.786674	17.557173
N 	9.434818	6.531864	17.559503
N 	9.785421	9.436376	17.556814
C 	6.572111	5.487294	17.555016
C 	5.209066	4.971012	17.566072
C 	4.360873	6.053147	17.563266
C 	5.187761	7.253325	17.561520
H 	4.942139	3.924654	17.578224
H 	3.280983	6.044099	17.560570
C 	4.688895	8.578190	17.553096
C 	7.739919	4.686504	17.556955
C 	4.971050	11.108388	17.536658
C 	6.052190	11.957706	17.537638
C 	7.253491	11.132243	17.555331
C 	5.488784	9.746124	17.545715
H 	3.924195	11.374051	17.533373
H 	6.041595	13.037407	17.522171
C 	8.578555	11.632100	17.557321
C 	10.829696	6.572195	17.553661
C 	11.347373	5.209863	17.550418
C 	10.266105	4.360694	17.546338
C 	9.064768	5.186303	17.559045
H 	12.394155	4.944134	17.552903
H 	10.276453	3.280865	17.532705
C 	11.109493	11.347305	17.575404
C 	11.957472	10.265111	17.577310
C 	11.130606	9.065074	17.569756
C 	9.746289	10.831243	17.559260
H 	11.376589	12.393583	17.589452
H 	13.037436	10.274227	17.580107
C 	11.629493	7.740207	17.562980
H 	7.616205	3.661956	17.556816
H 	3.664347	8.701904	17.552263
H 	8.702270	12.656648	17.557360
H 	12.654040	7.616492	17.565013
