8
11/21/2016 11:29, XYZ structure generated by mol3D Class, molSimplify
C 	2.210250	1.892100	4.998033
O 	1.011445	1.914765	5.708786
Ti 	8.358092	1.892100	7.911658
Ti 	8.358092	5.676300	7.911658
Ti 	8.358092	9.460500	7.911658
Ti 	3.238332	0.000000	7.911658
Ti 	3.238332	3.784200	7.911658
Ti 	3.238332	7.568400	7.911658
