22
10/24/2016 19:58, XYZ structure generated by mol3D Class, molSimplify
Mn 	9.832000	7.374000	16.716648
N 	12.081517	7.414306	17.757701
H 	12.732646	8.002758	17.204551
H 	12.495686	6.457482	17.871439
N 	8.466787	5.457893	16.487302
H 	8.920852	4.611658	16.058502
H 	7.843325	5.136298	17.286192
N 	8.217032	9.230508	17.041553
H 	8.178604	9.528883	18.039502
H 	7.943229	10.036459	16.432160
O 	0.295697	1.760427	15.572417
O 	-2.162303	6.017808	15.572417
O 	-4.620303	10.275189	15.572417
O 	5.211697	1.760427	15.572417
O 	2.753697	6.017808	15.572417
O 	0.295697	10.275189	15.572417
O 	10.127697	1.760427	15.572417
O 	7.669697	6.017808	15.572417
O 	5.211697	10.275189	15.572417
O 	15.043697	1.760427	15.572417
O 	12.585697	6.017808	15.572417
O 	10.127697	10.275189	15.572417
