28
04/14/2016 09:27, XYZ structure generated by mol3D Class, molSimplify
Fe 	0.000000	0.000000	0.000000
N 	0.039363	-2.038332	0.000000
N 	-2.013034	-0.330229	-0.000000
C 	1.119952	-2.836255	-0.024605
H 	2.082507	-2.334576	-0.021370
C 	1.035613	-4.225367	-0.051850
H 	1.937313	-4.827583	-0.073593
C 	-0.230966	-4.807151	-0.054348
H 	-0.345857	-5.886490	-0.076289
C 	-1.356407	-3.985203	-0.032643
H 	-2.342950	-4.432275	-0.041321
C 	-3.677200	-2.056100	0.044095
H 	-3.936622	-3.107566	0.056423
C 	-4.689837	-1.098527	0.055957
H 	-5.730747	-1.406106	0.074789
C 	-4.345691	0.251579	0.041679
H 	-5.100156	1.030829	0.047251
C 	-2.994069	0.585390	0.015155
H 	-2.676546	1.623308	0.002197
C 	-1.196628	-2.595755	-0.006000
C 	-2.340051	-1.644122	0.015239
Cl 	0.000000	2.240000	0.000000
C 	1.940000	0.000000	0.000000
O 	3.078055	0.000000	0.000000
S 	0.000000	0.000000	2.270000
H 	0.000000	0.000000	3.677364
S 	0.000000	0.000000	-2.270000
H 	0.000000	0.000000	-3.677364
