15

H         -3.33227        0.32317        0.74071
C         -2.88732       -0.16306       -0.13340
C         -0.75769        1.16344       -0.02196
C          0.63395        1.24889        0.04345
C          1.40375        0.08758        0.06905
C          0.78246       -1.15936        0.02931
C         -0.60944       -1.24630       -0.03615
C         -1.39123       -0.08525       -0.06222
H         -1.34728        2.07717       -0.04151
H          1.11697        2.22186        0.07430
H          2.48714        0.15409        0.11986
H          1.38195       -2.06560        0.04917
H         -1.07825       -2.22703       -0.06665
H         -3.23539       -1.20102       -0.15341
H         -3.24753        0.32949       -1.04230

