80
04/14/2016 09:12, XYZ structure generated by mol3D Class, molSimplify
Fe 	0.000000	0.000000	0.000000
N 	-0.246856	-2.052939	-0.009805
N 	-2.052747	0.248753	-0.000067
N 	2.052749	-0.248757	0.001117
N 	0.246865	2.052958	0.005155
C 	0.767129	-3.011591	-0.011732
C 	0.168375	-4.340503	-0.004696
C 	-1.196573	-4.175071	-0.007121
C 	-1.460527	-2.741720	-0.004605
H 	0.719514	-5.269168	0.004727
H 	-1.953772	-4.945054	-0.012180
C 	-2.750097	-2.157626	-0.011391
C 	2.159139	-2.752079	-0.008902
C 	-4.339700	-0.168950	-0.022018
C 	-4.175776	1.196081	-0.016946
C 	-2.742639	1.461782	0.001659
C 	-3.010343	-0.766149	-0.014636
H 	-5.267791	-0.721322	-0.027031
H 	-4.946730	1.952097	-0.030219
C 	-2.159128	2.752184	0.007552
C 	3.010560	0.766101	-0.001614
C 	4.339927	0.168851	-0.006532
C 	4.175807	-1.196156	-0.014704
C 	2.742538	-1.461871	-0.002909
H 	5.268013	0.721127	-0.002320
H 	4.946679	-1.952350	-0.030533
C 	-0.168104	4.340383	0.030546
C 	1.196733	4.174762	0.032070
C 	1.460605	2.741553	0.020255
C 	-0.767124	3.011597	0.010382
H 	-0.719069	5.269034	0.047323
H 	1.953939	4.944844	0.037230
C 	2.750194	2.157519	0.011840
C 	-3.934037	-3.086073	-0.016897
C 	-4.736967	-3.223785	-1.171635
C 	-5.843375	-4.093858	-1.178517
C 	-6.167893	-4.836195	-0.026426
C 	-5.375676	-4.703360	1.130579
C 	-4.266289	-3.837155	1.133149
H 	-4.486775	-2.655954	-2.064501
H 	-6.446537	-4.192065	-2.078251
H 	-7.023933	-5.506895	-0.030016
H 	-5.620226	-5.268938	2.026761
H 	-3.660169	-3.733102	2.029911
C 	3.087114	-3.935782	-0.013320
C 	3.866442	-4.245795	1.124327
C 	4.732131	-5.355452	1.122624
C 	4.836913	-6.170406	-0.021263
C 	4.066628	-5.868339	-1.161130
C 	3.196725	-4.762056	-1.154746
H 	3.783992	-3.622493	2.011486
H 	5.319218	-5.582616	2.009559
H 	4.143024	-6.489064	-2.050986
H 	2.607673	-4.529176	-2.038560
C 	3.934234	3.085960	0.017347
C 	4.263442	3.827778	1.174180
C 	5.372917	4.693859	1.181550
C 	6.168364	4.835661	0.027875
C 	5.846890	4.102504	-1.131015
C 	4.740388	3.232621	-1.133996
H 	3.654829	3.716796	2.068404
H 	5.615153	5.252271	2.082852
H 	7.024497	5.506254	0.031864
H 	6.452657	4.207757	-2.028164
H 	4.492496	2.671830	-2.032014
C 	-3.087112	3.935695	0.010169
C 	-3.878039	4.230186	1.143966
C 	-4.743838	5.339736	1.148869
C 	-4.837102	6.170442	0.015213
C 	-4.055300	5.884120	-1.120763
C 	-3.185405	4.777812	-1.120848
H 	-3.804470	3.594926	2.023365
H 	-5.339729	5.554620	2.032890
H 	-4.122803	6.516923	-2.002764
H 	-2.587569	4.556989	-2.001890
H 	-5.507597	7.026670	0.017159
H 	5.507410	-7.026629	-0.024409
S 	-0.000001	0.000001	-2.270000
C 	-0.000001	0.000001	-3.958334
N 	-0.000056	0.000070	-5.140045
