20
04/14/2016 09:25, XYZ structure generated by mol3D Class, molSimplify
Cr 	0.000000	0.000000	0.000000
N 	-0.000000	0.000007	2.200000
C 	-0.000000	0.000007	3.457115
S 	-0.000007	0.000246	4.866630
N 	-1.555635	1.555635	0.000000
H 	-2.509791	1.130951	-0.009768
H 	-1.481535	2.158938	0.849252
H 	-1.469492	2.170928	-0.839484
N 	-1.555635	-1.555635	0.000000
H 	-1.135523	-2.505219	-0.112527
H 	-2.093725	-1.546747	0.895027
H 	-2.231569	-1.408851	-0.782501
N 	1.555635	-1.555635	-0.000000
H 	2.509566	-1.131176	0.026757
H 	1.459280	-2.181193	0.830715
H 	1.491972	-2.148449	-0.857472
N 	1.555635	1.555635	-0.000000
H 	1.130929	2.509814	0.005749
H 	2.168451	1.472021	0.841522
H 	2.161438	1.478983	-0.847270
