15
04/14/2016 09:56, XYZ structure generated by mol3D Class, molSimplify
Fe 	0.000000	0.000000	0.000000
C 	0.000000	1.940000	0.000000
O 	0.000000	3.078055	0.000000
C 	1.758032	1.015000	0.000000
N 	2.782453	1.606450	0.000000
C 	0.000000	-1.940000	0.000000
O 	0.000000	-3.078055	0.000000
C 	0.000000	0.000000	1.940000
O 	-0.000000	-0.000000	3.078055
C 	0.000000	-0.000000	-1.940000
O 	0.000000	0.000000	-3.078055
N 	-1.907576	0.000000	-0.694301
H 	-2.562354	-0.407487	0.010033
H 	-2.228439	0.970861	-0.906832
H 	-1.986986	-0.563374	-1.570111
