35

Mn         0.00000        0.00000        0.00000
N          0.53412        2.10986       -0.00000
N         -1.91280        1.04097        0.00000
C          1.79419        2.57526        0.02460
H          2.57893        1.82534        0.02137
C          2.10007        3.93289        0.05185
H          3.13382        4.26015        0.07359
C          1.04564        4.84442        0.05435
H          1.23591        5.91305        0.07629
C         -0.26419        4.36844        0.03264
H         -1.08719        5.07259        0.04132
C         -3.03044        3.16204       -0.04410
H         -2.98675        4.24416       -0.05642
C         -4.26970        2.52439       -0.05596
H         -5.18376        3.10971       -0.07479
C         -4.31520        1.13186       -0.04168
H         -5.25684        0.59357       -0.04725
C         -3.11003        0.43481       -0.01516
H         -3.09414       -0.65048       -0.00220
C         -0.49771        2.98947        0.00600
C         -1.86094        2.39395       -0.01524
C         -1.62615       -1.18142        0.00000
O         -2.54686       -1.85033        0.00000
C          0.62110       -1.91163        0.00000
O          0.97276       -2.99399        0.00000
O          0.00000        0.00000        2.10000
H          0.78255        0.02733        2.70620
H         -0.78255       -0.02733        2.70618
O          0.00000        0.00000       -2.10000
H         -0.78255        0.02733       -2.70620
H          0.78255       -0.02733       -2.70618
N          2.19000        0.00000       -0.00000
H          2.56439        0.47566        0.85114
H          2.56420       -0.97493       -0.01360
H          2.56417        0.49926       -0.83754
