64
12/19/2017 22:47, XYZ structure generated by mol3D Class, molSimplify
Fe 	0.000000	0.000000	0.000000
N 	1.968006	0.000019	0.000000
C 	2.349787	1.297344	0.027965
N 	3.659105	1.730215	0.117628
C 	4.591309	0.784959	0.202162
C 	4.265875	-0.547502	0.194554
C 	2.909552	-0.933161	0.092644
N 	2.706112	-2.339985	0.117145
C 	1.306800	2.356342	-0.058739
N 	0.000000	1.968006	0.000000
C 	-0.958268	2.915838	-0.079106
C 	-0.691850	4.264547	-0.229607
C 	0.634166	4.666948	-0.292637
C 	1.643313	3.708789	-0.205209
H 	5.621080	1.125953	0.280619
H 	5.052810	-1.292251	0.272792
H 	3.013931	-2.762100	0.989903
H 	3.168332	-2.811305	-0.654547
H 	-1.981072	2.561722	-0.012814
H 	-1.502192	4.982416	-0.291129
H 	0.881984	5.718961	-0.405632
H 	2.680301	4.028784	-0.251255
N 	0.000000	-0.000017	1.968006
C 	0.022114	-1.294003	2.351712
N 	0.134472	-1.712778	3.632584
C 	0.157202	-0.760505	4.567217
C 	0.116422	0.575084	4.261579
C 	0.075340	0.934229	2.919095
N 	0.098912	2.316141	2.678988
C 	-0.053582	-2.353776	1.308184
N 	0.000000	-1.968006	0.000000
C 	-0.069753	-2.920504	-0.954439
C 	-0.194548	-4.271731	-0.683255
C 	-0.248027	-4.670905	0.643791
C 	-0.177890	-3.706866	1.647925
H 	0.217917	-1.105419	5.595065
H 	0.148907	1.314549	5.052352
H 	0.814854	2.791000	3.215437
H 	-0.804396	2.715801	2.916492
H 	-0.039959	-2.574792	-1.980346
H 	-0.264303	-4.994104	-1.488625
H 	-0.358838	-5.721002	0.899506
H 	-0.235340	-4.013322	2.688578
N 	-0.000015	0.000000	-1.968006
C 	-1.294001	0.022121	-2.351711
N 	-1.703725	0.096256	-3.639972
C 	-0.747444	0.174304	-4.568665
C 	0.589098	0.166908	-4.260844
C 	0.934231	0.075340	-2.919092
N 	2.328907	0.063778	-2.636122
C 	-2.353775	-0.053575	-1.308185
N 	-1.968006	0.000000	0.000000
C 	-2.920505	-0.069753	0.954438
C 	-4.271698	-0.190840	0.683598
C 	-4.670517	-0.241328	-0.642455
C 	-3.706276	-0.172681	-1.647431
H 	-1.093790	0.244531	-5.595516
H 	1.326867	0.233639	-5.049826
H 	2.720420	0.906046	-3.066028
H 	2.723239	-0.717468	-3.163733
H 	-2.573353	-0.016142	1.978613
H 	-4.994811	-0.244810	1.488942
H 	-5.722093	-0.337230	-0.900235
H 	-4.013436	-0.213383	-2.688309
