52
12/19/2017 22:47, XYZ structure generated by mol3D Class, molSimplify
Fe 	0.000000	0.000000	0.000000
C 	2.287164	1.347647	0.000584
N 	1.987277	-0.000011	0.000000
N 	3.115000	-0.681944	0.041071
N 	4.086863	0.186364	0.043973
H 	5.050894	-0.145206	0.062384
C 	3.650853	1.466342	0.019870
C 	1.287753	2.403873	-0.037323
N 	0.000000	1.987277	0.000000
C 	-0.970283	2.924731	-0.035608
C 	-0.709622	4.281517	-0.107744
C 	0.616477	4.698005	-0.142866
C 	1.637898	3.749192	-0.105373
H 	4.360871	2.269521	0.022982
H 	-1.990113	2.560782	0.011642
H 	-1.524733	4.996917	-0.128358
H 	0.849461	5.758674	-0.195999
H 	2.664852	4.092286	-0.134213
C 	-0.001625	-1.340360	2.291679
N 	0.000000	0.000010	1.987277
N 	0.037100	0.688450	3.121349
N 	0.014332	-0.196851	4.126071
H 	0.003087	0.147903	5.079698
C 	0.018278	-1.479356	3.664298
C 	-0.036948	-2.397222	1.291888
N 	0.000000	-1.987277	0.000000
C 	-0.031834	-2.933695	-0.962087
C 	-0.096077	-4.290945	-0.699939
C 	-0.132273	-4.701832	0.625754
C 	-0.102271	-3.745256	1.638945
H 	0.014052	-2.327828	4.330585
H 	-0.000387	-2.573931	-1.984392
H 	-0.124512	-5.009449	-1.510890
H 	-0.190703	-5.758861	0.870397
H 	-0.140839	-4.067438	2.672859
C 	-1.340360	-0.003714	-2.291744
N 	0.000009	0.000000	-1.987277
N 	0.688502	0.033090	-3.121442
N 	-0.201358	0.061088	-4.124858
H 	0.137567	0.095342	-5.079702
C 	-1.481953	0.032143	-3.663244
C 	-2.397300	-0.035878	-1.291875
N 	-1.987277	0.000000	0.000000
C 	-2.933769	-0.028888	0.962105
C 	-4.291132	-0.094507	0.700870
C 	-4.702421	-0.132187	-0.624736
C 	-3.745898	-0.101967	-1.638267
H 	-2.332682	0.046032	-4.326294
H 	-2.571130	0.022887	1.982219
H 	-5.009480	-0.112296	1.512527
H 	-5.759650	-0.185111	-0.869211
H 	-4.067924	-0.134641	-2.672096
