58
12/19/2017 22:47, XYZ structure generated by mol3D Class, molSimplify
Fe 	0.000000	0.000000	0.000000
N 	1.982193	-0.000014	0.000000
C 	2.246995	1.298641	-0.025995
N 	3.590323	1.429546	-0.031604
H 	4.119975	2.295477	-0.047626
N 	4.197052	0.217108	-0.008909
C 	3.196477	-0.584583	0.006695
N 	3.358297	-1.934819	-0.048978
C 	1.286603	2.395592	-0.034114
N 	0.000000	1.982193	0.000000
C 	-0.965292	2.924988	-0.006712
C 	-0.688656	4.281259	-0.036751
C 	0.643577	4.687035	-0.065795
C 	1.659414	3.730721	-0.069085
H 	4.257773	-2.400773	-0.055989
H 	2.556818	-2.562392	-0.046762
H 	-1.988799	2.568754	0.016407
H 	-1.495581	5.006206	-0.043358
H 	0.882730	5.748357	-0.091550
H 	2.690011	4.056536	-0.092390
N 	0.000000	0.000013	1.982193
C 	-0.028302	-1.293349	2.249466
N 	-0.079704	-1.432740	3.609813
H 	-0.134490	-2.276384	4.166487
N 	-0.047311	-0.246201	4.234699
C 	0.002075	0.587026	3.204395
N 	0.053821	1.914733	3.272750
C 	-0.034216	-2.390571	1.289204
N 	0.000000	-1.982193	0.000000
C 	-0.004402	-2.931629	-0.959085
C 	-0.027890	-4.289053	-0.690529
C 	-0.054271	-4.695616	0.637290
C 	-0.058572	-3.735614	1.647485
H 	-0.306415	2.315134	4.129242
H 	-0.306146	2.361734	2.436116
H 	0.003761	-2.578984	-1.983889
H 	-0.042562	-5.012929	-1.498741
H 	-0.087783	-5.754186	0.884008
H 	-0.092118	-4.060510	2.680479
N 	0.000012	0.000000	-1.982193
C 	-1.293350	-0.028307	-2.249466
N 	-1.434702	-0.032852	-3.609336
H 	-2.281484	-0.047106	-4.163603
N 	-0.246245	-0.029838	-4.235113
C 	0.587025	0.002073	-3.204395
N 	1.918927	-0.019856	-3.301810
C 	-2.390572	-0.034222	-1.289204
N 	-1.982193	0.000000	0.000000
C 	-2.931629	-0.004402	0.959085
C 	-4.287602	-0.043210	0.689827
C 	-4.695838	-0.077297	-0.636791
C 	-3.735755	-0.073118	-1.647308
H 	2.233897	-0.220674	-4.246516
H 	2.360441	-0.632141	-2.634028
H 	-2.577113	0.038081	1.981724
H 	-5.010618	-0.044118	1.496665
H 	-5.752785	-0.110256	-0.882780
H 	-4.060110	-0.103837	-2.679702
