49
12/19/2017 22:47, XYZ structure generated by mol3D Class, molSimplify
Fe 	0.000000	0.000000	0.000000
C 	2.282952	1.319583	0.031406
N 	3.649128	1.540969	0.044687
N 	4.240438	0.362536	0.037384
N 	3.208587	-0.519041	0.013947
H 	3.330611	-1.528049	0.035284
N 	1.987277	0.000002	0.000000
C 	1.294212	2.387787	0.032613
N 	0.000000	1.987277	0.000000
C 	-0.949152	2.946883	-0.000164
C 	-0.656280	4.300035	0.033563
C 	0.679086	4.691255	0.068423
C 	1.679592	3.722070	0.068202
H 	-1.979624	2.608766	-0.027049
H 	-1.454495	5.036148	0.028110
H 	0.935171	5.748508	0.092047
H 	2.721576	4.026557	0.093180
C 	0.030968	-1.310926	2.288418
N 	0.168734	-1.530475	3.640245
N 	0.167662	-0.340151	4.222657
N 	0.013657	0.526401	3.217089
H 	-0.095359	1.524331	3.379861
N 	0.000000	-0.000002	1.987277
C 	0.032367	-2.379213	1.299231
N 	0.000000	-1.987277	0.000000
C 	0.000503	-2.958514	-0.937658
C 	0.051892	-4.311048	-0.640974
C 	0.096712	-4.694190	0.693984
C 	0.084753	-3.715954	1.684103
H 	-0.078283	-2.635813	-1.970075
H 	0.026957	-5.053120	-1.432938
H 	0.115623	-5.747711	0.963197
H 	0.098256	-4.002207	2.731992
C 	-1.310925	0.030955	-2.288419
N 	-1.532441	0.036378	-3.648575
N 	-0.342385	0.020038	-4.230548
N 	0.526401	0.013639	-3.217088
H 	1.524988	0.016035	-3.394394
N 	-0.000002	0.000000	-1.987277
C 	-2.379212	0.032363	-1.299233
N 	-1.987277	0.000000	0.000000
C 	-2.958516	0.000517	0.937656
C 	-4.311893	0.035293	0.640935
C 	-4.695608	0.071390	-0.694169
C 	-3.716943	0.069256	-1.684125
H 	-2.631524	-0.035295	1.969632
H 	-5.052140	0.027702	1.434097
H 	-5.748386	0.094086	-0.963177
H 	-4.001307	0.092851	-2.731545
