55
12/19/2017 22:47, XYZ structure generated by mol3D Class, molSimplify
Fe 	0.000000	0.000000	0.000000
N 	3.623677	1.608217	0.163470
C 	2.286879	1.307283	-0.009732
N 	1.982193	0.000016	0.000000
O 	3.206941	-0.611888	0.272249
C 	4.110168	0.407805	0.349283
N 	5.374809	0.085129	0.621641
C 	1.288421	2.342054	-0.227925
N 	0.000000	1.982193	0.000000
C 	-0.947214	2.918489	-0.221953
C 	-0.671036	4.206421	-0.649607
C 	0.655368	4.562209	-0.860954
C 	1.656517	3.619461	-0.645182
H 	5.632446	-0.828522	0.983359
H 	6.027053	0.824188	0.875465
H 	-1.970855	2.612115	-0.025871
H 	-1.474645	4.919043	-0.805581
H 	0.905511	5.568000	-1.189985
H 	2.695660	3.889355	-0.809697
N 	0.164533	-1.571678	3.631942
C 	-0.033361	-1.306511	2.292383
N 	0.000000	-0.000016	1.982193
O 	0.185970	0.619899	3.218094
C 	0.275493	-0.375960	4.144152
N 	0.498115	-0.030616	5.409075
C 	-0.193599	-2.352799	1.291082
N 	0.000000	-1.982193	0.000000
C 	-0.162802	-2.933242	-0.944485
C 	-0.498072	-4.247429	-0.659633
C 	-0.677428	-4.612116	0.669217
C 	-0.521331	-3.652688	1.664892
H 	0.706174	0.925247	5.669019
H 	0.705464	-0.743087	6.098436
H 	-0.006519	-2.630224	-1.974780
H 	-0.620546	-4.972643	-1.457710
H 	-0.945487	-5.633434	0.927751
H 	-0.669185	-3.916392	2.707959
N 	-1.562026	0.017995	-3.651739
C 	-1.305640	-0.050317	-2.294979
N 	-0.000016	0.000000	-1.982193
O 	0.624751	0.126556	-3.222801
C 	-0.366590	0.136666	-4.159723
N 	-0.014329	0.269485	-5.439849
C 	-2.358248	-0.171232	-1.292927
N 	-1.982193	0.000000	0.000000
C 	-2.941359	-0.121131	0.942565
C 	-4.266521	-0.405942	0.657614
C 	-4.636059	-0.573119	-0.671651
C 	-3.670418	-0.451588	-1.666486
H 	0.888125	0.674399	-5.658052
H 	-0.749670	0.535342	-6.085415
H 	-2.629858	0.047001	1.968118
H 	-4.998599	-0.487196	1.454746
H 	-5.667688	-0.794027	-0.932332
H 	-3.939716	-0.580112	-2.710245
