67
10/18/2018 22:43, XYZ structure generated by mol3D Class, molSimplify
Fe 	0.000000	0.000000	0.000000
N 	0.000000	2.038969	0.000000
C 	1.323987	2.347235	0.005603
C 	2.326945	1.344056	0.005584
N 	2.038969	0.000002	0.000000
C 	3.021130	-0.904228	0.000242
C 	4.355531	-0.565573	0.005002
C 	4.685782	0.782461	0.010209
C 	3.678485	1.756818	0.010891
C 	4.022749	3.113591	0.017108
C 	3.039285	4.093807	0.017500
C 	1.693842	3.729141	0.011775
C 	0.714489	4.721759	0.011935
C 	-0.616589	4.359674	0.005644
C 	-0.929815	3.016408	0.000034
H 	2.706881	-1.943292	-0.002735
H 	5.121037	-1.333906	0.008469
H 	5.737481	1.062840	0.016978
H 	5.069856	3.417871	0.022051
H 	3.344563	5.140278	0.021755
H 	0.981374	5.779249	0.014061
H 	-1.401365	5.112126	0.002407
H 	-1.948242	2.651516	-0.003678
N 	0.000000	-2.038969	0.000000
C 	0.005587	-2.336621	1.331780
C 	0.005588	-1.332031	2.336359
N 	0.000000	-0.000002	2.038969
C 	0.000240	0.917989	3.027434
C 	0.005064	0.591312	4.364848
C 	0.010514	-0.752824	4.700237
C 	0.011277	-1.730370	3.696471
C 	0.017994	-3.079547	4.055932
C 	0.018977	-4.058622	3.075796
C 	0.013013	-3.698070	1.726955
C 	0.014507	-4.701336	0.747286
C 	0.007702	-4.364597	-0.596931
C 	0.000238	-3.027049	-0.918413
H 	-0.003784	1.957935	2.732048
H 	0.007997	1.357470	5.131855
H 	0.017289	-1.035103	5.751133
H 	0.023123	-3.381289	5.101477
H 	0.024214	-5.105263	3.373877
H 	0.017766	-5.752732	1.025652
H 	0.004435	-5.123795	-1.369744
H 	-0.006978	-2.701644	-1.952573
N 	-2.038969	0.000000	0.000000
C 	-2.336497	0.005589	-1.331903
C 	-1.331911	0.005589	-2.336489
N 	-0.000002	0.000000	-2.038969
C 	0.918192	0.000240	-3.027247
C 	0.595560	0.014072	-4.364210
C 	-0.748676	0.023924	-4.700367
C 	-1.728004	0.019142	-3.697203
C 	-3.077005	0.025801	-4.056684
C 	-4.056719	0.026783	-3.076975
C 	-3.697216	0.020976	-1.727988
C 	-4.700353	0.027974	-0.748649
C 	-4.364185	0.016830	0.595574
C 	-3.027236	0.000240	0.918206
H 	1.954167	-0.042172	-2.706636
H 	1.367068	-0.000526	-5.125744
H 	-1.027689	0.024005	-5.752303
H 	-3.377469	0.024321	-5.103138
H 	-5.103161	0.025081	-3.377481
H 	-5.752300	0.024016	-1.027672
H 	-5.125683	-0.004515	1.367007
H 	-2.706913	-0.046331	1.954142
