64
10/18/2018 22:42, XYZ structure generated by mol3D Class, molSimplify
Fe 	0.000000	0.000000	0.000000
N 	2.009184	0.000012	0.000000
C 	2.361091	1.308465	0.126911
N 	3.668048	1.745205	0.250043
C 	4.611648	0.805071	0.251247
C 	4.302943	-0.527122	0.131206
C 	2.951745	-0.919511	-0.001011
N 	2.758620	-2.321175	-0.116711
C 	1.309763	2.376947	0.128097
N 	0.000000	2.009184	0.000000
C 	-0.951468	2.966805	-0.000722
C 	-0.673626	4.318465	0.087587
C 	0.653522	4.707464	0.200083
C 	1.653050	3.733797	0.221712
H 	5.637956	1.150236	0.354117
H 	5.099684	-1.265678	0.138118
H 	3.057971	-2.825844	0.714105
H 	3.233956	-2.711915	-0.924539
H 	-1.974560	2.617629	-0.083492
H 	-1.475525	5.048112	0.073411
H 	0.910388	5.760647	0.275933
H 	2.689087	4.046804	0.314906
N 	0.000000	-0.000012	2.009184
C 	0.023572	-1.302931	2.370076
N 	0.076941	-1.732614	3.651516
C 	0.027977	-0.794204	4.599389
C 	-0.026486	0.544346	4.311403
C 	-0.001425	0.922254	2.974710
N 	-0.003710	2.304488	2.752200
C 	0.023904	-2.372144	1.318676
N 	0.000000	-2.009184	0.000000
C 	-0.000263	-2.978219	-0.940336
C 	0.011870	-4.330464	-0.650190
C 	0.033530	-4.711286	0.682649
C 	0.039098	-3.728904	1.672656
H 	0.039271	-1.153746	5.623960
H 	-0.056236	1.271951	5.113107
H 	0.671285	2.791541	3.329629
H 	-0.927846	2.678308	2.948829
H 	-0.042220	-2.640014	-1.968837
H 	-0.013903	-5.067990	-1.444213
H 	0.027828	-5.763022	0.955406
H 	0.038145	-4.028771	2.717141
N 	-0.000012	0.000000	-2.009184
C 	-1.302931	0.023577	-2.370076
N 	-1.722977	0.032974	-3.657713
C 	-0.776501	0.030967	-4.602663
C 	0.564855	0.014566	-4.313491
C 	0.922254	-0.001425	-2.974710
N 	2.316194	0.016287	-2.691601
C 	-2.372144	0.023909	-1.318676
N 	-2.009184	0.000000	0.000000
C 	-2.978219	-0.000263	0.940336
C 	-4.329485	0.023875	0.650402
C 	-4.709966	0.049971	-0.682354
C 	-3.727925	0.050023	-1.672372
H 	-1.136905	0.048761	-5.627073
H 	1.292779	0.023907	-5.113600
H 	2.693908	0.848468	-3.151305
H 	2.718306	-0.779332	-3.191401
H 	-2.637608	-0.023307	1.968190
H 	-5.067067	0.016670	1.444404
H 	-5.761292	0.064878	-0.955365
H 	-4.026019	0.067082	-2.716880
