52
10/18/2018 15:14, XYZ structure generated by mol3D Class, molSimplify
Fe 	0.000000	0.000000	0.000000
C 	2.324509	1.377962	0.012398
N 	2.100000	-0.000011	0.000000
N 	3.250213	-0.623964	0.103158
N 	4.178162	0.288411	0.124042
H 	5.155789	0.003518	0.182669
C 	3.685186	1.546790	0.075688
C 	1.312069	2.446492	-0.084741
N 	0.000000	2.100000	0.000000
C 	-0.935515	3.070419	-0.079446
C 	-0.628215	4.407370	-0.237530
C 	0.711730	4.764392	-0.316576
C 	1.698093	3.778656	-0.236801
H 	4.364495	2.376143	0.098872
H 	-1.963729	2.730831	0.002312
H 	-1.415233	5.150923	-0.290833
H 	0.986093	5.809694	-0.437730
H 	2.732990	4.091128	-0.305890
C 	0.043049	-1.366351	2.326375
N 	0.000000	0.000011	2.100000
N 	0.157278	0.631608	3.255287
N 	0.253857	-0.301676	4.208290
H 	0.343192	-0.005130	5.173950
C 	0.224857	-1.559165	3.683943
C 	-0.099942	-2.431767	1.317175
N 	0.000000	-2.100000	0.000000
C 	-0.113042	-3.080331	-0.921481
C 	-0.327470	-4.408068	-0.606373
C 	-0.435466	-4.749096	0.733858
C 	-0.322120	-3.754822	1.706521
H 	0.312326	-2.435126	4.307728
H 	-0.029054	-2.756302	-1.954590
H 	-0.417678	-5.155738	-1.386225
H 	-0.614746	-5.781053	1.023531
H 	-0.423282	-4.033420	2.749170
C 	-1.364278	0.080519	-2.318001
N 	0.000011	0.000000	-2.100000
N 	0.629744	0.225249	-3.245119
N 	-0.308153	0.460091	-4.172760
H 	-0.017573	0.661806	-5.122777
C 	-1.563345	0.379365	-3.652599
C 	-2.424174	-0.116719	-1.317062
N 	-2.100000	0.000000	0.000000
C 	-3.077646	-0.159983	0.917459
C 	-4.392298	-0.440232	0.597525
C 	-4.723165	-0.566119	-0.744173
C 	-3.732391	-0.403770	-1.713229
H 	-2.443500	0.544899	-4.254177
H 	-2.762330	-0.041693	1.949525
H 	-5.138644	-0.557167	1.374752
H 	-5.745097	-0.789756	-1.037557
H 	-3.998225	-0.513201	-2.758310
