55
10/18/2018 15:14, XYZ structure generated by mol3D Class, molSimplify
Fe 	0.000000	0.000000	0.000000
N 	3.653319	1.690638	0.174167
C 	2.323355	1.336778	-0.004542
N 	2.100000	-0.000010	0.000000
O 	3.345305	-0.545453	0.258796
C 	4.198105	0.513829	0.343989
N 	5.477942	0.249522	0.604181
C 	1.311163	2.385801	-0.234781
N 	0.000000	2.100000	0.000000
C 	-0.908369	3.075211	-0.216140
C 	-0.581311	4.345359	-0.652912
C 	0.757263	4.636712	-0.879097
C 	1.718470	3.649958	-0.666230
H 	6.098624	1.015309	0.857823
H 	5.785561	-0.656343	0.946851
H 	-1.941032	2.799161	-0.017010
H 	-1.353351	5.092053	-0.807574
H 	1.050665	5.628152	-1.216135
H 	2.765341	3.883270	-0.840756
N 	0.279411	-1.656467	3.643869
C 	-0.002552	-1.330367	2.327325
N 	0.000000	0.000009	2.100000
O 	0.243642	0.551777	3.354871
C 	0.404544	-0.490484	4.215043
N 	0.701778	-0.211881	5.480865
C 	-0.226206	-2.381651	1.314918
N 	0.000000	-2.100000	0.000000
C 	-0.210528	-3.084980	-0.899499
C 	-0.629005	-4.359056	-0.559074
C 	-0.844421	-4.643594	0.782735
C 	-0.639055	-3.646605	1.733789
H 	0.923284	-0.957184	6.129338
H 	0.874628	0.734341	5.794153
H 	-0.033739	-2.824463	-1.939077
H 	-0.789103	-5.113183	-1.322604
H 	-1.176618	-5.632562	1.088431
H 	-0.811707	-3.859130	2.785285
N 	-1.654291	0.199774	-3.661197
C 	-1.330367	-0.002555	-2.327325
N 	0.000010	0.000000	-2.100000
O 	0.551777	0.243640	-3.354871
C 	-0.490081	0.355375	-4.224737
N 	-0.212071	0.610759	-5.504625
C 	-2.381650	-0.226209	-1.314918
N 	-2.100000	0.000000	0.000000
C 	-3.084980	-0.210528	0.899500
C 	-4.357078	-0.636919	0.561982
C 	-4.640951	-0.857255	-0.779124
C 	-3.645605	-0.646800	-1.731334
H 	-0.979037	0.941616	-6.078883
H 	0.686693	1.012543	-5.741001
H 	-2.824798	-0.005617	1.933620
H 	-5.112333	-0.786185	1.325921
H 	-5.630465	-1.186800	-1.084631
H 	-3.860072	-0.813940	-2.782915
