49
10/18/2018 22:41, XYZ structure generated by mol3D Class, molSimplify
Fe 	0.000000	0.000000	0.000000
C 	2.277166	1.309275	0.016781
N 	3.644428	1.517970	0.017723
N 	4.223674	0.333160	0.015205
N 	3.182043	-0.537167	0.004553
H 	3.289465	-1.547784	0.025907
N 	1.961097	0.000002	0.000000
C 	1.290732	2.373963	0.019660
N 	0.000000	1.961097	0.000000
C 	-0.952219	2.917822	0.002535
C 	-0.666627	4.273177	0.025390
C 	0.666446	4.673005	0.046621
C 	1.671732	3.709604	0.043459
H 	-1.982310	2.578378	-0.014284
H 	-1.469108	5.004885	0.021846
H 	0.916787	5.731867	0.060717
H 	2.712584	4.017937	0.057677
C 	0.018354	-1.305733	2.279220
N 	0.140540	-1.513965	3.632819
N 	0.142873	-0.317034	4.202252
N 	0.006740	0.540111	3.185373
H 	-0.095527	1.540664	3.335839
N 	0.000000	-0.000002	1.961097
C 	0.020040	-2.370452	1.292785
N 	0.000000	-1.961097	0.000000
C 	0.001088	-2.922293	-0.947845
C 	0.043207	-4.278631	-0.663933
C 	0.076772	-4.676855	0.667290
C 	0.062714	-3.709511	1.667352
H 	-0.068896	-2.594118	-1.978639
H 	0.019638	-5.012377	-1.463784
H 	0.088494	-5.733341	0.925009
H 	0.067588	-4.004260	2.712795
C 	-1.305725	0.018974	-2.279213
N 	-1.514755	0.009132	-3.639801
N 	-0.317957	-0.003643	-4.208590
N 	0.540121	0.007637	-3.185362
H 	1.540391	0.018965	-3.352271
N 	-0.000002	0.000000	-1.961097
C 	-2.370451	0.020176	-1.292780
N 	-1.961097	0.000000	0.000000
C 	-2.922298	0.000496	0.947839
C 	-4.279504	0.023359	0.664080
C 	-4.678223	0.046193	-0.667357
C 	-3.710525	0.044362	-1.667342
H 	-2.589894	-0.024120	1.977865
H 	-5.011325	0.016127	1.464846
H 	-5.734116	0.059555	-0.924912
H 	-4.003394	0.058224	-2.712366
