61
10/18/2018 15:15, XYZ structure generated by mol3D Class, molSimplify
Fe 	0.000000	0.000000	0.000000
C 	2.320280	1.388309	-0.030594
N 	2.100000	-0.000019	0.000000
N 	3.251071	-0.617301	-0.032313
N 	4.176459	0.297876	-0.063471
H 	5.155649	0.014100	-0.094212
C 	3.681287	1.556751	-0.067886
C 	1.305165	2.461785	-0.008626
N 	0.000000	2.100000	0.000000
C 	-0.954581	3.053845	0.022404
C 	-0.669037	4.409282	0.040334
C 	0.675510	4.781334	0.008267
C 	1.675724	3.804002	-0.010566
C 	-1.766113	5.425460	0.034791
H 	4.360460	2.385978	-0.097540
H 	-1.975766	2.686595	0.035259
H 	0.950044	5.834347	0.003261
H 	2.707325	4.134019	-0.025484
H 	-2.625957	5.072883	0.614270
H 	-1.432684	6.365042	0.487691
H 	-2.088143	5.624806	-0.991886
C 	-0.034412	-1.367616	2.332850
N 	0.000000	0.000019	2.100000
N 	-0.041877	0.636658	3.261958
N 	-0.146580	-0.291021	4.218838
H 	-0.224257	0.010686	5.183810
C 	-0.120873	-1.551662	3.701549
C 	-0.004482	-2.441911	1.318068
N 	0.000000	-2.100000	0.000000
C 	0.023589	-3.084961	-0.925136
C 	0.060507	-4.436647	-0.620090
C 	0.045283	-4.783647	0.727591
C 	0.017865	-3.783925	1.702804
C 	0.039917	-5.473105	-1.697021
H 	-0.186404	-2.421946	4.335501
H 	0.007683	-2.740892	-1.955144
H 	0.046386	-5.828325	1.029858
H 	0.005036	-4.080350	2.745118
H 	0.600526	-5.133575	-2.574363
H 	0.504731	-6.403684	-1.354741
H 	-0.991540	-5.684479	-1.995374
C 	-1.367615	-0.034419	-2.332850
N 	0.000019	0.000000	-2.100000
N 	0.636658	-0.041879	-3.261958
N 	-0.295646	-0.097004	-4.221180
H 	0.000076	-0.131500	-5.190244
C 	-1.554074	-0.101213	-3.701867
C 	-2.441911	-0.004490	-1.318068
N 	-2.100000	0.000000	0.000000
C 	-3.084961	0.023589	0.925136
C 	-4.437014	0.054656	0.621196
C 	-4.784360	0.035643	-0.726248
C 	-3.784787	0.012423	-1.701888
C 	-5.471859	0.042152	1.699056
H 	-2.426568	-0.147244	-4.334289
H 	-2.737172	0.027835	1.953640
H 	-5.828754	0.037753	-1.028460
H 	-4.080798	0.003839	-2.743938
H 	-5.130363	0.606503	2.573244
H 	-6.401968	0.506996	1.355435
H 	-5.685079	-0.987300	2.003026
