55
10/18/2018 22:41, XYZ structure generated by mol3D Class, molSimplify
Fe 	0.000000	0.000000	0.000000
N 	3.623006	1.583368	-0.006419
C 	2.276919	1.296196	0.084698
N 	1.948899	0.000011	0.000000
O 	3.181344	-0.625466	-0.215159
C 	4.102251	0.381933	-0.206580
N 	5.375933	0.048547	-0.413145
C 	1.272858	2.325742	0.274902
N 	0.000000	1.948899	0.000000
C 	-0.964567	2.873476	0.194322
C 	-0.713627	4.163717	0.636828
C 	0.600459	4.533764	0.896541
C 	1.616615	3.602713	0.711781
H 	6.056623	0.784466	-0.589227
H 	5.648754	-0.859607	-0.777074
H 	-1.981798	2.577026	-0.032317
H 	-1.529344	4.867702	0.768531
H 	0.827803	5.540230	1.239981
H 	2.647165	3.878820	0.915314
N 	-0.088573	-1.537947	3.636849
C 	0.007709	-1.299458	2.282937
N 	0.000000	-0.000010	1.948899
O 	-0.167463	0.643865	3.175932
C 	-0.220794	-0.334102	4.124259
N 	-0.402973	0.038196	5.392917
C 	0.140231	-2.348840	1.287729
N 	0.000000	-1.948899	0.000000
C 	0.136632	-2.895380	-0.953102
C 	0.413906	-4.225879	-0.678323
C 	0.552221	-4.614537	0.649001
C 	0.410343	-3.663160	1.653945
H 	-0.720936	-0.679121	6.036090
H 	-0.805247	0.951481	5.570133
H 	-0.015586	-2.582391	-1.980069
H 	0.494556	-4.951337	-1.481696
H 	0.751249	-5.653492	0.900316
H 	0.502552	-3.948100	2.697976
N 	-1.536736	-0.069098	-3.641684
C 	-1.298874	0.023124	-2.285173
N 	-0.000010	0.000000	-1.948899
O 	0.647141	-0.110383	-3.180496
C 	-0.330068	-0.142876	-4.132230
N 	0.043513	-0.274880	-5.406508
C 	-2.352683	0.118486	-1.288919
N 	-1.948899	0.000000	0.000000
C 	-2.901326	0.097256	0.952031
C 	-4.244990	0.301715	0.674934
C 	-4.639167	0.413732	-0.653342
C 	-3.679850	0.319375	-1.656729
H 	-0.673650	-0.540332	-6.073086
H 	0.969405	-0.618976	-5.624615
H 	-2.575815	0.001018	1.980182
H 	-4.970684	0.366236	1.478780
H 	-5.684546	0.569828	-0.906074
H 	-3.964819	0.404045	-2.700756
