58
10/18/2018 15:15, XYZ structure generated by mol3D Class, molSimplify
Fe 	0.000000	0.000000	0.000000
N 	2.100000	-0.000008	0.000000
C 	2.275667	1.322440	-0.028895
N 	3.609658	1.528206	0.071774
H 	4.090764	2.419151	0.092701
N 	4.282772	0.354323	0.218242
C 	3.327998	-0.500998	0.216096
N 	3.541683	-1.831602	0.405384
C 	1.300087	2.409401	-0.235322
N 	0.000000	2.100000	0.000000
C 	-0.929102	3.065914	-0.157727
C 	-0.615030	4.359605	-0.526604
C 	0.724440	4.675331	-0.740977
C 	1.702874	3.691739	-0.591571
H 	2.777689	-2.503204	0.360813
H 	4.453225	-2.242885	0.566713
H 	-1.954520	2.759490	0.028308
H 	-1.393630	5.105093	-0.645041
H 	0.999217	5.685073	-1.039167
H 	2.735108	3.951989	-0.787514
N 	0.000000	0.000008	2.100000
C 	0.030214	-1.314377	2.265139
N 	0.331859	-1.546179	3.583788
H 	0.430479	-2.429982	4.067809
N 	0.536241	-0.408653	4.263682
C 	0.316464	0.495619	3.321361
N 	0.474300	1.812590	3.432178
C 	-0.248183	-2.387875	1.302228
N 	0.000000	-2.100000	0.000000
C 	-0.217736	-3.068842	-0.914436
C 	-0.672622	-4.335181	-0.597573
C 	-0.927545	-4.622699	0.736515
C 	-0.715847	-3.639569	1.702294
H 	-0.039964	2.343338	2.736044
H 	0.405909	2.187311	4.369927
H 	-0.017782	-2.786740	-1.944101
H 	-0.838399	-5.075170	-1.373073
H 	-1.301938	-5.602642	1.022237
H 	-0.944087	-3.864454	2.738094
N 	0.000008	0.000000	-2.100000
C 	-1.312700	0.071495	-2.253116
N 	-1.551639	0.523308	-3.523604
H 	-2.438850	0.734097	-3.963755
N 	-0.414519	0.713645	-4.211995
C 	0.492786	0.399359	-3.298580
N 	1.810306	0.580611	-3.428460
C 	-2.377224	-0.253781	-1.301944
N 	-2.100000	0.000000	0.000000
C 	-3.060948	-0.266442	0.909915
C 	-4.303458	-0.781067	0.586711
C 	-4.576368	-1.041829	-0.750141
C 	-3.603146	-0.775946	-1.712102
H 	2.389091	-0.079080	-2.933120
H 	2.111298	0.740069	-4.384056
H 	-2.796177	-0.038124	1.937847
H 	-5.040077	-0.974471	1.358544
H 	-5.539542	-1.452748	-1.041100
H 	-3.810449	-0.998404	-2.752633
