58
10/18/2018 22:42, XYZ structure generated by mol3D Class, molSimplify
Fe 	0.000000	0.000000	0.000000
N 	2.008277	0.000017	0.000000
C 	2.254845	1.303464	-0.018131
N 	3.597989	1.449274	0.022522
H 	4.115178	2.322162	0.022056
N 	4.216382	0.244725	0.099586
C 	3.226915	-0.567163	0.103916
N 	3.397597	-1.917084	0.139869
C 	1.291125	2.399419	-0.102355
N 	0.000000	2.008277	0.000000
C 	-0.956419	2.957626	-0.071480
C 	-0.669639	4.301864	-0.227504
C 	0.665004	4.689066	-0.317547
C 	1.671217	3.725935	-0.252810
H 	4.300491	-2.376302	0.161887
H 	2.601962	-2.549835	0.083985
H 	-1.980805	2.609218	0.006923
H 	-1.469694	5.033260	-0.281673
H 	0.915011	5.740253	-0.445505
H 	2.704045	4.038238	-0.336515
N 	0.000000	-0.000015	2.008277
C 	-0.019283	-1.298638	2.257138
N 	0.038241	-1.454137	3.617068
H 	0.031285	-2.304976	4.165026
N 	0.127941	-0.276597	4.253745
C 	0.100276	0.569565	3.234374
N 	0.161655	1.897520	3.303990
C 	-0.103508	-2.394887	1.293330
N 	0.000000	-2.008277	0.000000
C 	-0.068931	-2.963592	-0.950893
C 	-0.226629	-4.309334	-0.672946
C 	-0.326647	-4.696379	0.656939
C 	-0.266060	-3.729094	1.658900
H 	-0.141134	2.295325	4.183924
H 	-0.251619	2.348122	2.493721
H 	0.003861	-2.618371	-1.976549
H 	-0.285886	-5.037572	-1.474942
H 	-0.467049	-5.744159	0.911707
H 	-0.364934	-4.039602	2.692202
N 	-0.000013	0.000000	-2.008277
C 	-1.298636	-0.019277	-2.257137
N 	-1.456844	0.089963	-3.612212
H 	-2.311148	0.128870	-4.153351
N 	-0.277373	0.147159	-4.252452
C 	0.569568	0.100278	-3.234372
N 	1.901609	0.091566	-3.341880
C 	-2.394886	-0.103502	-1.293331
N 	-2.008277	0.000000	0.000000
C 	-2.963592	-0.068931	0.950892
C 	-4.307882	-0.241812	0.674012
C 	-4.694155	-0.351013	-0.655408
C 	-3.727945	-0.281213	-1.658369
H 	2.212575	-0.052519	-4.298568
H 	2.349520	-0.553582	-2.709049
H 	-2.618704	0.036367	1.973338
H 	-5.035935	-0.289230	1.476409
H 	-5.741542	-0.491664	-0.909513
H 	-4.037621	-0.377357	-2.691005
