
 OpenBabel11011616033D

 19 18  0  0  0  0  0  0  0  0999 V2000
   -0.0235   -0.8322    0.0006 C   0  0  0  0  0  0  0  0  0  0  0  0
    1.4019   -1.4041    0.3709 C   0  0  0  0  0  0  0  0  0  0  0  0
   -1.2993   -1.6943    0.3240 C   0  0  0  0  0  0  0  0  0  0  0  0
    2.4553   -0.4635   -0.0745 C   0  0  0  0  0  0  0  0  0  0  0  0
    1.7183   -2.7338   -0.1772 C   0  0  0  0  0  0  0  0  0  0  0  0
   -1.3152   -3.0630   -0.2137 C   0  0  0  0  0  0  0  0  0  0  0  0
   -2.5316   -1.0246   -0.1533 C   0  0  0  0  0  0  0  0  0  0  0  0
   -0.1625    0.3728    0.7517 O   0  0  0  0  0  0  0  0  0  0  0  0
   -0.5532    1.4287   -0.1049 C   0  0  0  0  0  0  0  0  0  0  0  0
    0.3900    2.6090    0.0707 C   0  0  0  0  0  0  0  0  0  0  0  0
   -1.5810    1.7453    0.1748 H   0  0  0  0  0  0  0  0  0  0  0  0
   -0.5675    1.1609   -1.1902 H   0  0  0  0  0  0  0  0  0  0  0  0
   -3.5040   -0.5107   -0.5213 N   0  0  0  0  0  0  0  0  0  0  0  0
   -1.3778   -4.1487   -0.6124 N   0  0  0  0  0  0  0  0  0  0  0  0
    2.0085   -3.7777   -0.5877 N   0  0  0  0  0  0  0  0  0  0  0  0
    3.2842    0.2695   -0.4210 N   0  0  0  0  0  0  0  0  0  0  0  0
    0.4029    2.9330    1.1330 H   0  0  0  0  0  0  0  0  0  0  0  0
    0.0500    3.4568   -0.5603 H   0  0  0  0  0  0  0  0  0  0  0  0
    1.4172    2.3257   -0.2368 H   0  0  0  0  0  0  0  0  0  0  0  0
  1  2  1  0  0  0  0
  1  3  1  0  0  0  0
  1  8  1  0  0  0  0
  2  4  1  0  0  0  0
  2  5  1  0  0  0  0
  3  6  1  0  0  0  0
  3  7  1  0  0  0  0
  8  9  1  0  0  0  0
  9 10  1  0  0  0  0
  9 11  1  0  0  0  0
  9 12  1  0  0  0  0
 10 17  1  0  0  0  0
 10 18  1  0  0  0  0
 10 19  1  0  0  0  0
 13  7  3  0  0  0  0
 14  6  3  0  0  0  0
 15  5  3  0  0  0  0
 16  4  3  0  0  0  0
M  CHG  1   1  -1
M  END
