86
10/18/2018 15:25, XYZ structure generated by mol3D Class, molSimplify
Co 	0.000000	0.000000	0.000000
N 	-0.000952	2.067750	-0.001425
N 	2.067766	-0.000950	0.001425
N 	-2.067764	0.000952	0.001425
N 	0.000950	-2.067751	-0.001425
C 	-1.169372	2.841459	-0.012190
C 	-0.653324	4.209339	0.005842
C 	0.685161	4.227743	-0.001577
C 	1.065108	2.788527	0.006686
H 	-1.262490	5.102471	0.016926
H 	1.342024	5.080283	-0.007247
C 	2.515082	2.424064	0.012720
C 	-2.473804	2.494019	-0.026520
C 	4.240632	0.666677	-0.007766
C 	4.242478	-0.662598	-0.045858
C 	2.865450	-1.119861	-0.023624
C 	2.861690	1.114672	0.004244
H 	5.124915	1.279358	0.007277
H 	5.123935	-1.280802	-0.072693
C 	2.533014	-2.438259	-0.019619
C 	-2.838946	-1.109030	0.009259
C 	-4.178874	-0.743141	0.016185
C 	-4.215980	0.629141	-0.034049
C 	-2.902078	1.046444	-0.023121
H 	-5.038384	-1.400690	0.038632
H 	-5.108795	1.239638	-0.062792
C 	0.753167	-4.273913	0.039473
C 	-0.576766	-4.277726	0.013141
C 	-1.088733	-2.926215	0.007593
C 	1.067489	-2.830366	0.003229
H 	1.424787	-5.107939	0.070108
H 	-1.181000	-5.169778	0.011586
C 	-2.393159	-2.567778	0.008971
C 	3.545495	3.491899	0.004449
C 	4.277591	3.768101	-1.159601
C 	5.248460	4.771520	-1.163358
C 	5.482728	5.519413	-0.010340
C 	4.758297	5.255704	1.151737
C 	3.801310	4.238244	1.163842
H 	4.118163	3.170636	-2.056058
H 	5.833688	4.954678	-2.060933
H 	6.245779	6.293821	-0.012065
H 	4.954044	5.828348	2.054537
H 	3.267535	4.017356	2.085235
C 	-3.500306	3.576667	-0.014546
C 	-4.268460	3.800724	1.139013
C 	-5.270070	4.773117	1.141406
C 	-5.501024	5.538992	0.000292
C 	-4.739323	5.328480	-1.148156
C 	-3.749900	4.343602	-1.162080
H 	-4.115277	3.202875	2.035955
H 	-5.879878	4.926585	2.029195
H 	-4.927891	5.923410	-2.039159
H 	-3.186984	4.176762	-2.078665
C 	-3.431176	-3.643712	0.000561
C 	-3.725158	-4.364250	1.166506
C 	-4.751240	-5.311459	1.169373
C 	-5.504193	-5.531141	0.015904
C 	-5.227484	-4.812227	-1.145983
C 	-4.189574	-3.878442	-1.157580
H 	-3.156442	-4.183559	2.076712
H 	-4.967617	-5.872371	2.074839
H 	-6.308785	-6.262275	0.023415
H 	-5.822235	-4.974278	-2.041408
H 	-3.987896	-3.314705	-2.066716
C 	3.574742	-3.497610	-0.017391
C 	4.339000	-3.743204	1.132972
C 	5.309994	-4.746724	1.137930
C 	5.510148	-5.528123	0.000441
C 	4.749695	-5.299150	-1.146094
C 	3.794846	-4.280011	-1.159652
H 	4.186234	-3.130591	2.019435
H 	5.911238	-4.911952	2.027456
H 	4.902027	-5.908255	-2.032546
H 	3.210257	-4.097286	-2.058676
H 	6.263963	-6.310618	0.005024
H 	-6.284421	6.293950	0.001831
C 	0.464003	-0.534042	4.318929
C 	0.728552	-0.812337	2.996957
N 	0.000000	0.000000	2.150000
C 	-0.705197	0.750469	2.974744
N 	-0.442776	0.481187	4.284791
H 	-0.859169	0.945750	5.078211
H 	0.833307	-0.955774	5.241078
H 	1.404025	-1.553879	2.594466
H 	-1.421707	1.501058	2.686112
