49
10/18/2018 15:35, XYZ structure generated by mol3D Class, molSimplify
Fe 	0.000000	0.000000	0.000000
C 	2.350554	1.334079	0.008660
N 	3.680413	1.553959	0.017099
N 	4.235574	0.352240	0.013675
N 	3.282664	-0.564598	0.003453
H 	3.448107	-1.594952	-0.001043
N 	2.100000	0.000008	0.000000
C 	1.328763	2.409891	0.008531
N 	0.000000	2.100000	0.000000
C 	-0.970002	3.052282	-0.000692
C 	-0.618107	4.402308	0.007933
C 	0.732259	4.754858	0.017098
C 	1.713313	3.760316	0.017416
H 	-2.012435	2.765366	-0.007738
H 	-1.383682	5.167281	0.007572
H 	1.019013	5.798491	0.023900
H 	2.758065	4.044480	0.024492
C 	0.007784	-1.325978	2.355375
N 	0.014849	-1.545982	3.686057
N 	0.011697	-0.345821	4.243807
N 	0.003077	0.570643	3.291553
H 	-0.001239	1.601079	3.456367
N 	0.000000	-0.000008	2.100000
C 	0.008024	-2.401958	1.332663
N 	0.000000	-2.100000	0.000000
C 	-0.000027	-3.061878	-0.960977
C 	0.008331	-4.409114	-0.599628
C 	0.016657	-4.751928	0.752418
C 	0.016517	-3.750442	1.725562
H 	-0.006386	-2.783049	-2.005686
H 	0.008425	-5.179511	-1.359758
H 	0.023264	-5.793457	1.046768
H 	0.023035	-4.028416	2.771996
C 	-1.325977	0.007770	-2.355377
N 	-1.546004	0.015068	-3.686031
N 	-0.345852	0.011906	-4.243791
N 	0.570645	0.003062	-3.291552
H 	1.601038	-0.001167	-3.456500
N 	-0.000008	0.000000	-2.100000
C 	-2.401956	0.008021	-1.332664
N 	-2.100000	0.000000	0.000000
C 	-3.061882	-0.000011	0.960973
C 	-4.409034	0.008905	0.599636
C 	-4.751805	0.017476	-0.752402
C 	-3.750358	0.017052	-1.725525
H 	-2.782983	-0.006290	2.005631
H 	-5.179414	0.009203	1.359757
H 	-5.793325	0.024421	-1.046741
H 	-4.028324	0.023737	-2.771943
