86
01/25/2018 14:02, XYZ structure generated by mol3D Class, molSimplify
Co 	0.000000	0.000000	0.000000
N 	-0.000952	2.067750	-0.001425
N 	2.067766	-0.000950	0.001425
N 	-2.067764	0.000952	0.001425
N 	0.000950	-2.067751	-0.001425
C 	-1.122518	2.897975	-0.000671
C 	-0.687344	4.289031	0.011523
C 	0.687593	4.288380	0.009492
C 	1.121423	2.896993	0.007098
H 	-1.345808	5.144913	0.023853
H 	1.347058	5.143572	0.007716
C 	2.471702	2.471683	-0.000837
C 	-2.473394	2.473502	0.000235
C 	4.288183	0.687893	-0.017396
C 	4.289031	-0.686954	-0.017297
C 	2.898060	-1.122557	-0.000668
C 	2.896834	1.121444	-0.008845
H 	5.143388	1.347524	-0.019776
H 	5.145036	-1.345075	-0.032704
C 	2.473400	-2.473601	0.000215
C 	-2.897046	-1.121362	-0.005605
C 	-4.288407	-0.687717	-0.009354
C 	-4.289057	0.687141	-0.012553
C 	-2.897966	1.122663	0.001218
H 	-5.143618	-1.347249	-0.007774
H 	-5.144994	1.345554	-0.026246
C 	0.687057	-4.289037	0.016127
C 	-0.687793	-4.288181	0.017258
C 	-1.121521	-2.896892	0.010352
C 	1.122518	-2.897975	0.001121
H 	1.345340	-5.145019	0.029997
H 	-1.347252	-5.143473	0.019134
C 	-2.471807	-2.471588	0.003087
C 	3.535841	3.535339	-0.002190
C 	4.316812	3.772460	-1.155852
C 	5.310975	4.768877	-1.158843
C 	5.543856	5.540582	-0.003886
C 	4.772936	5.309578	1.152069
C 	3.775354	4.316661	1.150760
H 	4.136732	3.181972	-2.050912
H 	5.898279	4.941915	-2.057789
H 	6.313348	6.309047	-0.004474
H 	4.947684	5.897142	2.050433
H 	3.185815	4.137475	2.046709
C 	-3.536540	3.537471	-0.000640
C 	-4.347732	3.747735	1.137542
C 	-5.340167	4.745647	1.139163
C 	-5.541533	5.546303	-0.001893
C 	-4.740270	5.342852	-1.142273
C 	-3.744057	4.348778	-1.139198
H 	-4.191432	3.135602	2.022536
H 	-5.950503	4.897606	2.026478
H 	-4.890250	5.953163	-2.029970
H 	-3.131087	4.191368	-2.023411
C 	-3.536045	-3.535250	0.004440
C 	-3.774311	-4.315356	1.158389
C 	-4.771996	-5.308177	1.161880
C 	-5.544384	-5.540112	0.007136
C 	-5.312758	-4.769525	-1.148906
C 	-4.318482	-3.773300	-1.147997
H 	-3.183643	-4.135472	2.053440
H 	-4.945824	-5.894852	2.061016
H 	-6.313981	-6.308483	0.008124
H 	-5.901288	-4.943370	-2.046860
H 	-4.139325	-3.183597	-2.043836
C 	3.536533	-3.537372	-0.000710
C 	4.356726	-3.739054	1.132601
C 	5.349257	-4.736858	1.134179
C 	5.541731	-5.546293	-0.002357
C 	4.731577	-5.351620	-1.137870
C 	3.735367	-4.357543	-1.134645
H 	4.207302	-3.120375	2.014200
H 	5.966352	-4.881977	2.017859
H 	4.874685	-5.968578	-2.022067
H 	3.115628	-4.206772	-2.015326
H 	6.310008	-6.315997	-0.002975
H 	-6.309811	6.316007	-0.002475
C 	-0.408780	0.488914	4.323901
C 	-0.684347	0.817996	3.014778
N 	0.000000	-0.000000	2.150000
C 	0.684347	-0.817996	2.916055
N 	0.469545	-0.555830	4.239626
H 	0.889935	-1.049227	5.013054
H 	-0.782044	0.932074	5.177787
H 	-1.319679	1.577208	2.723338
H 	1.304960	-1.563290	2.563539
