86
10/18/2018 15:29, XYZ structure generated by mol3D Class, molSimplify
Co 	0.000000	0.000000	0.000000
N 	-0.000952	2.067750	-0.001425
N 	2.067766	-0.000950	0.001425
N 	-2.067764	0.000952	0.001425
N 	0.000950	-2.067751	-0.001425
C 	-1.151580	2.908160	-0.014204
C 	-0.704804	4.299917	-0.003641
C 	0.657462	4.253440	0.015576
C 	1.044140	2.834802	0.023161
H 	-1.297913	5.204414	-0.006162
H 	1.302801	5.121021	0.022753
C 	2.477296	2.384820	0.005799
C 	-2.449808	2.511349	-0.000409
C 	4.210674	0.682294	-0.009528
C 	4.211395	-0.681129	-0.004206
C 	2.884720	-1.087255	0.005905
C 	2.883340	1.086004	-0.009373
H 	5.098220	1.300811	-0.009335
H 	5.101057	-1.296180	-0.011737
C 	2.479347	-2.387269	-0.004928
C 	-2.884950	-1.080962	-0.019263
C 	-4.209438	-0.681858	-0.017738
C 	-4.209894	0.682734	-0.006392
C 	-2.885729	1.083033	0.011041
H 	-5.091071	-1.308036	-0.021624
H 	-5.092457	1.307410	-0.012512
C 	0.654494	-4.254564	0.010473
C 	-0.707896	-4.298160	0.028576
C 	-1.151282	-2.906108	0.021697
C 	1.044846	-2.836375	-0.015627
H 	1.296507	-5.124275	0.015915
H 	-1.303963	-5.200720	0.043087
C 	-2.448683	-2.508194	0.002783
C 	3.512097	3.461056	0.000300
C 	4.330938	3.655637	-1.126399
C 	5.297618	4.666118	-1.130294
C 	5.466183	5.478363	-0.005993
C 	4.661616	5.287824	1.120893
C 	3.681534	4.289375	1.122982
H 	4.209280	3.034001	-2.004854
H 	5.917256	4.819138	-2.004573
H 	6.220402	6.255007	-0.008377
H 	4.798601	5.913956	1.993122
H 	3.067486	4.148877	2.003906
C 	-3.514512	3.553226	-0.001328
C 	-4.368684	3.694861	1.105356
C 	-5.361685	4.679519	1.107025
C 	-5.521461	5.515418	-0.001679
C 	-4.682839	5.374169	-1.110560
C 	-3.676775	4.403535	-1.108846
H 	-4.252069	3.055291	1.971758
H 	-6.007599	4.794692	1.967792
H 	-4.811998	6.017029	-1.971637
H 	-3.035197	4.301099	-1.975513
C 	-3.513541	-3.548602	0.007473
C 	-3.704841	-4.366381	1.134130
C 	-4.711851	-5.336339	1.136802
C 	-5.521616	-5.508591	0.010660
C 	-5.332033	-4.704475	-1.116699
C 	-4.338189	-3.720926	-1.116811
H 	-3.085225	-4.239424	2.013404
H 	-4.864275	-5.954859	2.011751
H 	-6.295895	-6.264863	0.011670
H 	-5.955391	-4.843390	-1.990565
H 	-4.198141	-3.105824	-1.997323
C 	3.513874	-3.465409	-0.002156
C 	4.372514	-3.627706	1.100405
C 	5.336679	-4.640624	1.101670
C 	5.463339	-5.488467	-0.001602
C 	4.619590	-5.331086	-1.104388
C 	3.642299	-4.330228	-1.103006
H 	4.283180	-2.979156	1.963178
H 	5.986649	-4.767875	1.957838
H 	4.723846	-5.984818	-1.960758
H 	2.998085	-4.216408	-1.966120
H 	6.215316	-6.267243	-0.001980
H 	-6.295046	6.272396	-0.001778
C 	-0.628569	-0.009166	4.284736
C 	-1.066731	-0.017558	2.981736
N 	0.000000	0.000000	2.150000
C 	1.068198	0.018562	2.981156
N 	0.709195	0.014163	4.274930
H 	1.342990	0.026614	5.107144
H 	-1.246730	-0.019610	5.176430
H 	-2.099052	-0.035802	2.661368
H 	2.095026	0.035427	2.650289
