86
10/25/2017 20:05, XYZ structure generated by mol3D Class, molSimplify
Co 	0.000000	0.000000	0.000000
N 	-0.246856	-2.052939	-0.009805
N 	-2.052747	0.248753	-0.000067
N 	2.052749	-0.248757	0.001117
N 	0.246865	2.052958	0.005155
C 	0.758107	-3.012997	-0.001681
C 	0.120444	-4.307957	0.005307
C 	-1.202372	-4.190240	-0.036128
C 	-1.371279	-2.731722	-0.030486
H 	0.638255	-5.255812	0.032108
H 	-1.940756	-4.970033	-0.051061
C 	-2.754166	-2.166623	-0.021541
C 	2.088348	-2.793222	0.004215
C 	-4.249236	-0.178789	-0.000751
C 	-4.096750	1.158315	-0.008954
C 	-2.670050	1.486531	0.012364
C 	-2.932257	-0.828623	-0.006297
H 	-5.204655	-0.681234	-0.008303
H 	-4.913170	1.864194	-0.035222
C 	-2.168188	2.733831	0.018390
C 	2.983716	0.778417	0.014248
C 	4.228015	0.170046	0.017127
C 	4.044962	-1.211735	-0.017972
C 	2.683844	-1.488190	0.008459
H 	5.188083	0.674146	0.023363
H 	4.847562	-1.940352	-0.050835
C 	-0.150997	4.298215	0.037692
C 	1.169162	4.098703	0.009475
C 	1.492217	2.676670	0.003274
C 	-0.697336	2.926408	0.014644
H 	-0.677794	5.238955	0.064713
H 	1.894292	4.903610	0.003935
C 	2.729322	2.169308	0.008229
C 	-3.923945	-3.080866	-0.020423
C 	-4.701297	-3.239834	-1.177520
C 	-5.805494	-4.094326	-1.175233
C 	-6.131333	-4.811399	-0.025510
C 	-5.361548	-4.667735	1.127502
C 	-4.267848	-3.798563	1.135473
H 	-4.461642	-2.689712	-2.085487
H 	-6.412990	-4.201964	-2.071018
H 	-6.987763	-5.482559	-0.028308
H 	-5.617103	-5.233676	2.020892
H 	-3.685151	-3.697987	2.048750
C 	3.002454	-3.990825	0.001748
C 	3.776981	-4.291513	1.135433
C 	4.675572	-5.361188	1.120014
C 	4.800975	-6.149144	-0.022061
C 	4.048906	-5.853887	-1.158182
C 	3.165539	-4.770975	-1.153992
H 	3.712768	-3.671856	2.027365
H 	5.284766	-5.575467	1.995202
H 	4.158999	-6.463417	-2.051969
H 	2.611394	-4.537431	-2.060067
C 	3.887239	3.127357	0.012706
C 	4.247195	3.827844	1.177662
C 	5.350276	4.679845	1.176536
C 	6.125520	4.827011	0.027238
C 	5.792010	4.119193	-1.130200
C 	4.677562	3.280672	-1.140215
H 	3.678467	3.709072	2.097306
H 	5.623281	5.225178	2.078730
H 	6.996155	5.475880	0.033926
H 	6.417287	4.211008	-2.014611
H 	4.453401	2.718827	-2.044877
C 	-3.078019	3.911587	0.015054
C 	-3.836125	4.229979	1.153163
C 	-4.696317	5.330361	1.149108
C 	-4.794145	6.138578	0.018189
C 	-4.040726	5.838498	-1.115758
C 	-3.195379	4.725007	-1.124064
H 	-3.785447	3.612733	2.048458
H 	-5.299087	5.556831	2.026361
H 	-4.122439	6.472241	-1.996726
H 	-2.633147	4.508493	-2.030082
H 	-5.462174	6.995515	0.017625
H 	5.494089	-6.987721	-0.030808
C 	0.588178	-0.259944	-4.257550
C 	0.994116	-0.487162	-2.986393
N 	0.000000	0.000000	-2.150000
C 	-0.999470	0.516621	-2.923240
N 	-0.627344	0.403764	-4.225084
H 	-1.230876	0.536266	-5.022913
H 	1.062644	-0.515089	-5.191836
H 	1.891208	-0.974623	-2.640348
H 	-1.949055	0.910486	-2.594272
