87
01/25/2018 14:27, XYZ structure generated by mol3D Class, molSimplify
Fe 	0.000000	0.000000	0.000000
C 	-0.105840	5.090022	-0.049548
C 	1.101579	4.493334	0.038347
C 	1.174806	3.040433	0.109893
N 	0.000000	2.338178	0.000000
C 	-1.233675	2.957846	-0.039076
C 	-1.335328	4.301995	-0.063288
H 	2.038919	5.026950	0.034286
H 	2.085201	2.464752	0.123924
H 	-2.069649	2.287391	-0.067492
H 	-2.305455	4.770694	-0.108181
Cl 	-0.239089	6.809432	-0.174088
C 	5.322183	0.035676	-0.285788
C 	4.741254	-0.345731	0.852482
C 	3.278894	-0.370868	1.009285
N 	2.338178	0.000000	0.000000
C 	3.114937	0.197691	-1.151457
C 	4.439349	0.303756	-1.375086
H 	6.388016	0.002669	-0.421498
H 	5.342230	-0.714018	1.672081
H 	2.558067	0.199010	-2.087308
H 	4.824945	0.459652	-2.366789
C 	2.885373	-0.993304	2.322719
O 	2.296092	-2.266003	2.193204
H 	3.770813	-1.183127	2.941745
H 	2.332638	-0.330339	2.963053
H 	1.511604	-2.014191	1.606049
C 	0.453492	-5.278256	-0.114540
C 	-0.728414	-4.777217	0.254266
C 	-0.974480	-3.335531	0.236840
N 	0.000000	-2.338178	0.000000
C 	1.149801	-3.018660	-0.407981
C 	1.457808	-4.331308	-0.493589
H 	0.639110	-6.336356	-0.147800
H 	-1.553177	-5.418119	0.524352
H 	1.967006	-2.364087	-0.707795
H 	2.431648	-4.649148	-0.815904
C 	-2.424499	-2.994772	0.200582
O 	-2.785359	-2.752964	-1.154464
H 	-3.055294	-3.829545	0.523214
H 	-2.688571	-2.195445	0.879338
H 	-2.174266	-1.965629	-1.276624
C 	-5.287040	0.249789	-0.462815
C 	-4.784481	0.152825	0.771335
C 	-3.348838	0.155777	0.999305
N 	-2.338178	0.000000	0.000000
C 	-3.030885	0.192835	-1.213703
C 	-4.334102	0.326154	-1.527396
H 	-6.343126	0.239982	-0.653686
H 	-5.439487	0.068624	1.627892
H 	-2.380992	0.198982	-2.095734
H 	-4.653484	0.426513	-2.546968
C 	-3.024691	0.319829	2.438697
O 	-2.271316	1.505257	2.582803
H 	-3.908096	0.456336	3.070835
H 	-2.566051	-0.572241	2.847491
H 	-1.454578	1.117740	2.129484
C 	-0.129452	-0.306306	5.307381
C 	0.287996	0.827635	4.760154
C 	0.440381	0.951320	3.310570
N 	0.000000	0.000000	2.338178
C 	-0.364656	-1.131453	3.079374
C 	-0.447966	-1.372313	4.408152
H 	-0.226103	-0.424298	6.377571
H 	0.561221	1.684034	5.362249
H 	-0.646741	-1.985623	2.469983
H 	-0.763001	-2.332162	4.779193
C 	1.216430	2.162276	2.944721
O 	0.299532	3.253913	2.832259
H 	1.928443	2.455452	3.724479
H 	1.837855	2.006927	2.073472
H 	-0.439813	2.780925	2.376523
C 	-0.047255	-0.294960	-5.314432
C 	0.123070	0.888943	-4.751422
C 	0.101483	1.056651	-3.296495
N 	0.000000	0.000000	-2.338178
C 	-0.199019	-1.162420	-3.087210
C 	-0.253358	-1.393390	-4.419954
H 	0.004850	-0.426228	-6.378417
H 	0.327458	1.772449	-5.349936
H 	-0.334542	-2.057433	-2.491385
H 	-0.427339	-2.383503	-4.800539
C 	0.428839	2.453327	-2.922561
O 	1.703068	2.462539	-2.338160
H 	0.521057	3.137737	-3.770179
H 	-0.342302	2.904688	-2.312254
H 	1.568849	1.657724	-1.743822
