51
11/29/2017 16:36, XYZ structure generated by mol3D Class, molSimplify
Fe 	0.000000	0.000000	0.000000
C 	-0.069900	4.973223	0.019618
C 	1.192118	4.276844	-0.073847
C 	1.097796	2.927472	-0.096777
N 	0.000000	2.100000	0.000000
C 	-1.128532	2.875004	0.091570
C 	-1.288951	4.211313	0.090895
H 	2.147481	4.757614	-0.151933
H 	2.048539	2.417641	-0.221832
H 	-2.066602	2.345741	0.162854
H 	-2.273593	4.644780	0.097383
Cl 	-0.118961	6.686758	0.024018
C 	5.047524	0.078380	0.126182
C 	4.364175	-0.398313	-1.037078
C 	2.996816	-0.442847	-1.057325
N 	2.100000	0.000000	0.000000
C 	2.854439	0.374530	1.106136
C 	4.302225	0.420141	1.176098
H 	6.126130	0.076380	0.145625
H 	4.949898	-0.866090	-1.812740
H 	2.373595	0.742045	2.002865
H 	4.734793	0.755466	2.108209
C 	2.544403	-1.464579	-2.195017
O 	1.859877	-1.199811	-3.421045
H 	3.462498	-1.777879	-2.681622
H 	2.109619	-2.356428	-1.764800
H 	0.936357	-1.186210	-3.065930
C 	-0.068985	-5.020016	0.026961
C 	1.147527	-4.296178	0.352972
C 	1.049338	-2.956276	0.332232
N 	0.000000	-2.100000	0.000000
C 	-1.096207	-2.916526	-0.274143
C 	-1.253871	-4.250195	-0.263511
H 	-0.076153	-6.090627	-0.039384
H 	2.081584	-4.800112	0.530720
H 	1.982995	-2.448293	0.583410
H 	-2.010434	-2.373211	-0.530654
H 	-2.203142	-4.703114	-0.491505
C 	-5.025651	0.004886	0.074791
C 	-4.298117	0.434886	-1.111524
C 	-2.972783	0.388738	-1.023052
N 	-2.100000	0.000000	0.000000
C 	-2.908855	-0.414975	1.060012
C 	-4.247800	-0.452983	1.206171
H 	-6.098091	-0.036299	0.076586
H 	-4.801561	0.787036	-1.996926
H 	-2.471996	0.746533	-1.920318
H 	-2.370306	-0.826528	1.913015
H 	-4.704448	-0.855714	2.096566
Cl 	0.000000	0.000000	2.240000
Cl 	0.000000	0.000000	-2.240000
