86
11/03/2017 18:27, XYZ structure generated by mol3D Class, molSimplify
Co 	0.000000	0.000000	0.000000
N 	-0.236020	-2.099338	-0.007626
N 	-2.126623	0.249491	0.003220
N 	2.109655	-0.246876	-0.008973
N 	0.252952	2.096767	-0.001079
C 	0.786024	-2.982639	-0.020679
C 	0.162263	-4.290554	-0.010503
C 	-1.162409	-4.129929	-0.030171
C 	-1.451488	-2.708215	-0.021566
H 	0.656250	-5.248927	0.015401
H 	-1.877996	-4.938172	-0.029454
C 	-2.720761	-2.209106	-0.014590
C 	2.132106	-2.781325	-0.028762
C 	-4.343697	-0.177281	0.000197
C 	-4.154815	1.150325	-0.022784
C 	-2.733037	1.491138	-0.006967
C 	-2.967019	-0.722191	-0.002791
H 	-5.276130	-0.716142	0.010444
H 	-4.965749	1.867878	-0.041609
C 	-2.208402	2.728176	0.002712
C 	2.989453	0.824494	-0.007758
C 	4.291409	0.166879	-0.013442
C 	4.173399	-1.167330	-0.047114
C 	2.707485	-1.386663	-0.028914
H 	5.243327	0.680905	0.001462
H 	4.956315	-1.906448	-0.069696
C 	-0.210892	4.250243	0.035344
C 	1.175653	4.094779	-0.001728
C 	1.472921	2.738544	-0.005060
C 	-0.804575	2.997912	0.007591
H 	-0.729982	5.205215	0.070959
H 	1.890349	4.910640	-0.003441
C 	2.768628	2.148137	-0.004211
C 	-3.905260	-3.113929	-0.012983
C 	-4.700762	-3.258030	-1.160883
C 	-5.819564	-4.098964	-1.151093
C 	-6.147302	-4.813980	-0.001452
C 	-5.366501	-4.676675	1.147612
C 	-4.260735	-3.825175	1.142337
H 	-4.459351	-2.721353	-2.075947
H 	-6.428541	-4.208993	-2.045711
H 	-7.001904	-5.489259	-0.002392
H 	-5.614103	-5.247432	2.040339
H 	-3.656672	-3.739155	2.047673
C 	3.064070	-3.938260	-0.031776
C 	3.818142	-4.248622	1.109748
C 	4.702593	-5.329579	1.098420
C 	4.824384	-6.120806	-0.042636
C 	4.071068	-5.827701	-1.177860
C 	3.202173	-4.735237	-1.177428
H 	3.719806	-3.659460	2.018268
H 	5.288433	-5.565712	1.984356
H 	4.149398	-6.460265	-2.058975
H 	2.607239	-4.531288	-2.065499
C 	3.961804	3.053095	0.005086
C 	4.279275	3.786447	1.160404
C 	5.350547	4.680763	1.155397
C 	6.118194	4.841010	0.003461
C 	5.803277	4.127527	-1.152125
C 	4.720327	3.247406	-1.158839
H 	3.672569	3.699213	2.060711
H 	5.580162	5.263813	2.044980
H 	6.955605	5.535785	0.001636
H 	6.395338	4.270495	-2.053259
H 	4.469782	2.730914	-2.082134
C 	-3.172745	3.882993	0.005269
C 	-3.916427	4.203174	1.152768
C 	-4.775680	5.305319	1.155594
C 	-4.879061	6.114547	0.024205
C 	-4.129248	5.821729	-1.111629
C 	-3.286824	4.706761	-1.126549
H 	-3.830077	3.609325	2.060597
H 	-5.354672	5.546126	2.043628
H 	-4.191114	6.472083	-1.981789
H 	-2.692868	4.514947	-2.018053
H 	-5.534443	6.983959	0.035508
H 	5.496466	-6.976093	-0.042850
C 	-0.614100	0.185527	4.263750
C 	-1.068761	0.279659	2.992763
N 	0.000000	0.000000	2.150000
C 	1.092573	-0.258696	2.929495
N 	0.736546	-0.102864	4.231898
H 	1.284165	-0.384855	5.031692
H 	-1.140283	0.295587	5.199739
H 	-2.070366	0.497877	2.670856
H 	2.077216	-0.573580	2.626348
