11

C         -0.76000        1.16910       -0.00050
C          0.63290        1.24470       -0.00120
C          1.39470        0.07650        0.00040
C          0.76410       -1.16770        0.00270
C         -0.62880       -1.24320        0.00010
C         -1.39070       -0.07510       -0.00150
H         -1.35360        2.07920        0.00050
H          1.12430        2.21400       -0.00280
H          2.47990        0.13550       -0.00000
H          1.35760       -2.07780        0.00630
H         -2.47590       -0.13400       -0.00350
