9

C         -1.18855       -0.00560       -0.00053
C         -0.34193        1.08116        0.00007
N          0.97094        0.67891        0.00036
C          0.93046       -0.63355       -0.00019
N         -0.35688       -1.09114        0.00261
H         -0.63689       -2.06062        0.00790
H         -2.22054       -0.00143       -0.00284
H         -0.65265        2.06527        0.00027
H          1.76431       -1.24159       -0.00244
