
 OpenBabel10241611223D

 31 35  0  0  0  0  0  0  0  0999 V2000
    5.9238   16.5403    6.4344 C   0  0  0  0  0  0  0  0  0  0  0  0
    5.3263   17.3467    7.3924 C   0  0  0  0  0  0  0  0  0  0  0  0
    5.0503   18.5657    6.7468 C   0  0  0  0  0  0  0  0  0  0  0  0
    5.5001   18.4087    5.4448 C   0  0  0  0  0  0  0  0  0  0  0  0
    5.5694   19.2443    4.2541 C   0  0  0  0  0  0  0  0  0  0  0  0
    5.2121   20.5430    3.9266 C   0  0  0  0  0  0  0  0  0  0  0  0
    5.6073   20.7187    2.5880 C   0  0  0  0  0  0  0  0  0  0  0  0
    6.1765   19.5136    2.2026 C   0  0  0  0  0  0  0  0  0  0  0  0
    7.3700   17.8322    0.8349 C   0  0  0  0  0  0  0  0  0  0  0  0
    8.0002   17.3460   -0.2923 C   0  0  0  0  0  0  0  0  0  0  0  0
    8.4286   16.0642    0.0258 C   0  0  0  0  0  0  0  0  0  0  0  0
    8.0379   15.8304    1.3329 C   0  0  0  0  0  0  0  0  0  0  0  0
    7.8860   14.3541    3.4086 C   0  0  0  0  0  0  0  0  0  0  0  0
    8.0882   13.1570    4.0734 C   0  0  0  0  0  0  0  0  0  0  0  0
    7.5636   13.3187    5.3487 C   0  0  0  0  0  0  0  0  0  0  0  0
    7.0677   14.6054    5.4007 C   0  0  0  0  0  0  0  0  0  0  0  0
    6.0088   17.1911    5.2939 N   0  0  0  0  0  0  0  0  0  0  0  0
    6.1354   18.6605    3.2036 N   0  0  0  0  0  0  0  0  0  0  0  0
    6.7735   19.1381    0.9669 N   0  0  0  0  0  0  0  0  0  0  0  0
    7.3949   16.9028    1.8276 N   0  0  0  0  0  0  0  0  0  0  0  0
    8.2766   14.6167    2.0556 N   0  0  0  0  0  0  0  0  0  0  0  0
    7.2669   15.2366    4.2126 N   0  0  0  0  0  0  0  0  0  0  0  0
    6.4258   15.2133    6.5397 N   0  0  0  0  0  0  0  0  0  0  0  0
    7.5455   12.5820    6.1408 H   0  0  0  0  0  0  0  0  0  0  0  0
    8.5597   12.2675    3.6771 H   0  0  0  0  0  0  0  0  0  0  0  0
    5.1247   17.0950    8.4249 H   0  0  0  0  0  0  0  0  0  0  0  0
    4.5943   19.4461    7.1791 H   0  0  0  0  0  0  0  0  0  0  0  0
    4.7412   21.2735    4.5706 H   0  0  0  0  0  0  0  0  0  0  0  0
    5.5028   21.6131    1.9888 H   0  0  0  0  0  0  0  0  0  0  0  0
    8.1356   17.8601   -1.2345 H   0  0  0  0  0  0  0  0  0  0  0  0
    8.9630   15.3826   -0.6225 H   0  0  0  0  0  0  0  0  0  0  0  0
  1 23  1  0  0  0  0
  1  2  2  0  0  0  0
  3  2  1  0  0  0  0
  4  3  2  0  0  0  0
  5  4  1  0  0  0  0
  6  5  2  0  0  0  0
  7  6  1  0  0  0  0
  8  7  2  0  0  0  0
  8 18  1  0  0  0  0
  9 19  1  0  0  0  0
  9 20  1  0  0  0  0
 10 11  1  0  0  0  0
 10  9  2  0  0  0  0
 11 12  2  0  0  0  0
 12 20  1  0  0  0  0
 12 21  1  0  0  0  0
 13 22  1  0  0  0  0
 13 14  2  0  0  0  0
 14 15  1  0  0  0  0
 16 15  2  0  0  0  0
 16 23  1  0  0  0  0
 17  4  1  0  0  0  0
 17  1  1  0  0  0  0
 18  5  1  0  0  0  0
 19  8  1  0  0  0  0
 21 13  1  0  0  0  0
 22 16  1  0  0  0  0
 24 15  1  0  0  0  0
 25 14  1  0  0  0  0
 26  2  1  0  0  0  0
 27  3  1  0  0  0  0
 28  6  1  0  0  0  0
 29  7  1  0  0  0  0
 30 10  1  0  0  0  0
 31 11  1  0  0  0  0
M  CHG  2   16  -1  17  -1
M  END
