
 OpenBabel10261611453D

 32 32  0  0  0  0  0  0  0  0999 V2000
   -1.8699   -0.6860   -0.5008 N   0  0  0  0  0  0  0  0  0  0  0  0
   -1.7901   -1.9836    0.1645 C   0  0  0  0  0  0  0  0  0  0  0  0
   -0.3747   -2.6004    0.0793 C   0  0  0  0  0  0  0  0  0  0  0  0
    0.6417   -1.7522    0.7043 N   0  0  0  0  0  0  0  0  0  0  0  0
    1.9394   -1.7579    0.0230 C   0  0  0  0  0  0  0  0  0  0  0  0
    2.6569   -0.3813   -0.0044 C   0  0  0  0  0  0  0  0  0  0  0  0
    1.8558    0.6626   -0.6351 N   0  0  0  0  0  0  0  0  0  0  0  0
    1.3482    1.6416    0.3232 C   0  0  0  0  0  0  0  0  0  0  0  0
    0.3707    2.6519   -0.3094 C   0  0  0  0  0  0  0  0  0  0  0  0
   -0.7677    2.1530   -1.0910 N   0  0  0  0  0  0  0  0  0  0  0  0
   -1.9514    1.8206   -0.2766 C   0  0  0  0  0  0  0  0  0  0  0  0
   -2.0364    0.4351    0.4230 C   0  0  0  0  0  0  0  0  0  0  0  0
   -2.5967   -0.6708   -1.2137 H   0  0  0  0  0  0  0  0  0  0  0  0
   -2.4808   -2.6777   -0.3294 H   0  0  0  0  0  0  0  0  0  0  0  0
   -2.1188   -1.9322    1.2132 H   0  0  0  0  0  0  0  0  0  0  0  0
   -0.1493   -2.8659   -0.9632 H   0  0  0  0  0  0  0  0  0  0  0  0
   -0.3806   -3.5369    0.6470 H   0  0  0  0  0  0  0  0  0  0  0  0
    0.7908   -2.1748    1.6223 H   0  0  0  0  0  0  0  0  0  0  0  0
    1.8806   -2.1307   -1.0086 H   0  0  0  0  0  0  0  0  0  0  0  0
    2.5737   -2.4582    0.5759 H   0  0  0  0  0  0  0  0  0  0  0  0
    3.5841   -0.4963   -0.5808 H   0  0  0  0  0  0  0  0  0  0  0  0
    2.9758   -0.0966    1.0083 H   0  0  0  0  0  0  0  0  0  0  0  0
    2.3571    1.1312   -1.3894 H   0  0  0  0  0  0  0  0  0  0  0  0
    2.1983    2.2176    0.7162 H   0  0  0  0  0  0  0  0  0  0  0  0
    0.8691    1.1554    1.1799 H   0  0  0  0  0  0  0  0  0  0  0  0
    0.9610    3.2516   -1.0146 H   0  0  0  0  0  0  0  0  0  0  0  0
    0.0187    3.3557    0.4524 H   0  0  0  0  0  0  0  0  0  0  0  0
   -1.0186    2.9205   -1.7133 H   0  0  0  0  0  0  0  0  0  0  0  0
   -2.8126    1.8772   -0.9562 H   0  0  0  0  0  0  0  0  0  0  0  0
   -2.1189    2.6046    0.4709 H   0  0  0  0  0  0  0  0  0  0  0  0
   -3.0331    0.3527    0.8826 H   0  0  0  0  0  0  0  0  0  0  0  0
   -1.3150    0.3937    1.2474 H   0  0  0  0  0  0  0  0  0  0  0  0
  1  2  1  0  0  0  0
  1 12  1  0  0  0  0
  1 13  1  0  0  0  0
  2  3  1  0  0  0  0
  2 14  1  0  0  0  0
  2 15  1  0  0  0  0
  3  4  1  0  0  0  0
  3 16  1  0  0  0  0
  3 17  1  0  0  0  0
  4  5  1  0  0  0  0
  4 18  1  0  0  0  0
  5  6  1  0  0  0  0
  5 19  1  0  0  0  0
  5 20  1  0  0  0  0
  6  7  1  0  0  0  0
  6 21  1  0  0  0  0
  6 22  1  0  0  0  0
  7  8  1  0  0  0  0
  7 23  1  0  0  0  0
  8  9  1  0  0  0  0
  8 24  1  0  0  0  0
  8 25  1  0  0  0  0
  9 10  1  0  0  0  0
  9 26  1  0  0  0  0
  9 27  1  0  0  0  0
 10 11  1  0  0  0  0
 10 28  1  0  0  0  0
 11 12  1  0  0  0  0
 11 29  1  0  0  0  0
 11 30  1  0  0  0  0
 12 31  1  0  0  0  0
 12 32  1  0  0  0  0
M  CHG  1   1  0
M  END
