
 OpenBabel10201610423D

 38 38  0  0  0  0  0  0  0  0999 V2000
    0.8065    7.9121    2.4953 C   0  0  0  0  0  0  0  0  0  0  0  0
    1.6733    7.2416    2.5849 H   0  0  0  0  0  0  0  0  0  0  0  0
    0.9862    8.5184    1.6007 H   0  0  0  0  0  0  0  0  0  0  0  0
   -0.4694    7.1070    2.2653 C   0  0  0  0  0  0  0  0  0  0  0  0
   -1.3380    7.7673    2.2229 H   0  0  0  0  0  0  0  0  0  0  0  0
   -0.4006    6.5645    1.3136 H   0  0  0  0  0  0  0  0  0  0  0  0
   -1.9437    5.3105    3.0979 C   0  0  0  0  0  0  0  0  0  0  0  0
   -1.8174    4.6775    2.2121 H   0  0  0  0  0  0  0  0  0  0  0  0
   -2.7593    6.0136    2.9116 H   0  0  0  0  0  0  0  0  0  0  0  0
   -2.2189    4.4762    4.3364 C   0  0  0  0  0  0  0  0  0  0  0  0
   -3.1670    3.9331    4.2431 H   0  0  0  0  0  0  0  0  0  0  0  0
   -1.4192    3.7491    4.5036 H   0  0  0  0  0  0  0  0  0  0  0  0
   -2.3279    4.6535    6.8010 C   0  0  0  0  0  0  0  0  0  0  0  0
   -1.4488    4.0080    6.8667 H   0  0  0  0  0  0  0  0  0  0  0  0
   -3.2193    4.0131    6.7781 H   0  0  0  0  0  0  0  0  0  0  0  0
   -2.2472    5.3860    5.5112 N   0  0  0  0  0  0  0  0  0  0  0  0
   -3.0678    5.9920    5.4294 H   0  0  0  0  0  0  0  0  0  0  0  0
   -0.7188    6.1168    3.3481 N   0  0  0  0  0  0  0  0  0  0  0  0
    0.0824    5.4806    3.3967 H   0  0  0  0  0  0  0  0  0  0  0  0
   -2.3997    5.5980    7.9982 C   0  0  0  0  0  0  0  0  0  0  0  0
   -3.2665    6.2685    7.9086 H   0  0  0  0  0  0  0  0  0  0  0  0
   -2.5794    4.9916    8.8929 H   0  0  0  0  0  0  0  0  0  0  0  0
   -1.1238    6.4031    8.2282 C   0  0  0  0  0  0  0  0  0  0  0  0
   -0.2552    5.7427    8.2705 H   0  0  0  0  0  0  0  0  0  0  0  0
   -1.1926    6.9455    9.1799 H   0  0  0  0  0  0  0  0  0  0  0  0
    0.3506    8.1997    7.3956 C   0  0  0  0  0  0  0  0  0  0  0  0
    0.2241    8.8326    8.2816 H   0  0  0  0  0  0  0  0  0  0  0  0
    1.1662    7.4963    7.5819 H   0  0  0  0  0  0  0  0  0  0  0  0
    0.6257    9.0339    6.1569 C   0  0  0  0  0  0  0  0  0  0  0  0
    1.5739    9.5770    6.2505 H   0  0  0  0  0  0  0  0  0  0  0  0
   -0.1741    9.7610    5.9899 H   0  0  0  0  0  0  0  0  0  0  0  0
    0.7346    8.8566    3.6924 C   0  0  0  0  0  0  0  0  0  0  0  0
   -0.1445    9.5021    3.6268 H   0  0  0  0  0  0  0  0  0  0  0  0
    1.6262    9.4970    3.7154 H   0  0  0  0  0  0  0  0  0  0  0  0
    0.6538    8.1238    4.9821 N   0  0  0  0  0  0  0  0  0  0  0  0
    1.4747    7.5180    5.0641 H   0  0  0  0  0  0  0  0  0  0  0  0
   -0.8745    7.3932    7.1453 N   0  0  0  0  0  0  0  0  0  0  0  0
   -1.6756    8.0295    7.0968 H   0  0  0  0  0  0  0  0  0  0  0  0
  1  2  1  0  0  0  0
  1 32  1  0  0  0  0
  3  1  1  0  0  0  0
  4  1  1  0  0  0  0
  4 18  1  0  0  0  0
  5  4  1  0  0  0  0
  6  4  1  0  0  0  0
  7 18  1  0  0  0  0
  7 10  1  0  0  0  0
  8  7  1  0  0  0  0
  9  7  1  0  0  0  0
 10 12  1  0  0  0  0
 10 16  1  0  0  0  0
 11 10  1  0  0  0  0
 13 14  1  0  0  0  0
 13 20  1  0  0  0  0
 15 13  1  0  0  0  0
 16 13  1  0  0  0  0
 17 16  1  0  0  0  0
 18 19  1  0  0  0  0
 20 23  1  0  0  0  0
 20 22  1  0  0  0  0
 21 20  1  0  0  0  0
 23 24  1  0  0  0  0
 23 25  1  0  0  0  0
 26 28  1  0  0  0  0
 26 27  1  0  0  0  0
 29 30  1  0  0  0  0
 29 26  1  0  0  0  0
 31 29  1  0  0  0  0
 32 34  1  0  0  0  0
 32 35  1  0  0  0  0
 33 32  1  0  0  0  0
 35 36  1  0  0  0  0
 35 29  1  0  0  0  0
 37 26  1  0  0  0  0
 37 23  1  0  0  0  0
 38 37  1  0  0  0  0
M  END
