
 OpenBabel09121713343D

  7  6  0  0  0  0  0  0  0  0999 V2000
   -1.8016   -0.5719   -0.8456 N   0  5  0  0  0  0  0  0  0  0  0  0
   -3.2633   -1.5220    0.8952 N   0  0  0  0  0  0  0  0  0  0  0  0
   -1.8519   -2.1393   -0.1881 C   0  0  0  0  0  0  0  0  0  0  0  0
   -0.9776   -0.5468   -1.5352 H   0  0  0  0  0  0  0  0  0  0  0  0
   -0.8829   -2.4521    0.1793 H   0  0  0  0  0  0  0  0  0  0  0  0
   -3.5162   -2.2399    1.4921 H   0  0  0  0  0  0  0  0  0  0  0  0
   -1.7427   -2.9736   -0.8588 H   0  0  0  0  0  0  0  0  0  0  0  0
  1  3  1  0  0  0  0
  1  4  1  0  0  0  0
  2  6  1  0  0  0  0
  3  2  1  0  0  0  0
  3  5  1  0  0  0  0
  7  3  1  0  0  0  0
M  CHG  1   1  -1
M  END
