
 OpenBabel11091621313D

  6  5  0  0  0  0  0  0  0  0999 V2000
   -1.8756   -0.5212   -0.8511 N   0  5  0  0  0  0  0  0  0  0  0  0
   -3.2858   -1.4397    0.8148 N   0  0  0  0  0  0  0  0  0  0  0  0
   -1.8738   -1.8685   -0.0262 C   0  0  0  0  0  0  0  0  0  0  0  0
   -1.0116   -0.7184   -1.4049 H   0  0  0  0  0  0  0  0  0  0  0  0
   -2.3532   -2.5685   -0.6921 H   0  0  0  0  0  0  0  0  0  0  0  0
   -3.4514   -2.2688    1.4290 H   0  0  0  0  0  0  0  0  0  0  0  0
  1  3  1  0  0  0  0
  1  4  1  0  0  0  0
  2  6  1  0  0  0  0
  3  2  1  0  0  0  0
  3  5  1  0  0  0  0
M  CHG  1   1  -1
M  END
