17
08/16/2018 13:03, XYZ structure generated by mol3D Class, molSimplify
Cu 	0.000020	0.000000	0.000000
X 	2.076560	0.000000	0.000000
X 	-0.692190	-1.334140	-1.432790
X 	-0.692200	1.907910	-0.439010
X 	-0.692200	-0.573780	1.871790
N 	-0.692190	-1.334140	-1.432790
N 	-0.692198	-0.708282	1.287236
C 	-1.409761	-1.899959	0.829209
C 	-0.754767	-2.419004	-0.450975
H 	-1.309345	-3.290665	-0.862591
H 	0.268888	-2.764058	-0.204225
H 	-2.463366	-1.642123	0.602567
H 	-1.421572	-2.680778	1.621034
H 	-1.640511	-1.208926	-1.854374
H 	-0.034568	-1.593796	-2.199186
H 	0.195918	-1.009171	1.749328
H 	-1.266628	-0.205870	1.997884
