
 OpenBabel10201610483D

 56 64  0  0  0  0  0  0  0  0999 V2000
    1.0140    0.7767    1.4928 N   0  0  0  0  0  0  0  0  0  0  0  0
    2.3383    2.4242    0.3064 N   0  0  0  0  0  0  0  0  0  0  0  0
    0.9036    1.2260   -1.2371 N   0  0  0  0  0  0  0  0  0  0  0  0
    0.1238   -0.5370    3.3219 N   0  0  0  0  0  0  0  0  0  0  0  0
    0.9105    0.3986    2.8068 C   0  0  0  0  0  0  0  0  0  0  0  0
    1.8252    1.1983    3.6185 C   0  0  0  0  0  0  0  0  0  0  0  0
    2.1068    1.2144    4.9844 C   0  0  0  0  0  0  0  0  0  0  0  0
    1.5945    0.5391    5.6629 H   0  0  0  0  0  0  0  0  0  0  0  0
    3.0629    2.1224    5.4402 C   0  0  0  0  0  0  0  0  0  0  0  0
    3.3061    2.1592    6.4988 H   0  0  0  0  0  0  0  0  0  0  0  0
    3.7216    2.9927    4.5518 C   0  0  0  0  0  0  0  0  0  0  0  0
    4.4626    3.6870    4.9393 H   0  0  0  0  0  0  0  0  0  0  0  0
    3.4386    2.9777    3.1858 C   0  0  0  0  0  0  0  0  0  0  0  0
    3.9426    3.6456    2.4937 H   0  0  0  0  0  0  0  0  0  0  0  0
    2.4815    2.0708    2.7310 C   0  0  0  0  0  0  0  0  0  0  0  0
    1.9452    1.7811    1.4032 C   0  0  0  0  0  0  0  0  0  0  0  0
    1.8540    2.1587   -0.9044 C   0  0  0  0  0  0  0  0  0  0  0  0
    2.2990    2.8548   -2.1095 C   0  0  0  0  0  0  0  0  0  0  0  0
    3.2314    3.8695   -2.3266 C   0  0  0  0  0  0  0  0  0  0  0  0
    3.7852    4.3000   -1.4976 H   0  0  0  0  0  0  0  0  0  0  0  0
    3.4246    4.3047   -3.6382 C   0  0  0  0  0  0  0  0  0  0  0  0
    4.1451    5.0926   -3.8422 H   0  0  0  0  0  0  0  0  0  0  0  0
    2.7018    3.7403   -4.7057 C   0  0  0  0  0  0  0  0  0  0  0  0
    2.8772    4.1006   -5.7161 H   0  0  0  0  0  0  0  0  0  0  0  0
    1.7671    2.7278   -4.4872 C   0  0  0  0  0  0  0  0  0  0  0  0
    1.2042    2.2862   -5.3038 H   0  0  0  0  0  0  0  0  0  0  0  0
    1.5749    2.2923   -3.1765 C   0  0  0  0  0  0  0  0  0  0  0  0
    0.7056    1.2723   -2.5932 C   0  0  0  0  0  0  0  0  0  0  0  0
   -0.7056   -1.2723    2.5933 C   0  0  0  0  0  0  0  0  0  0  0  0
   -0.9036   -1.2261    1.2371 N   0  0  0  0  0  0  0  0  0  0  0  0
   -1.0140   -0.7767   -1.4928 N   0  0  0  0  0  0  0  0  0  0  0  0
   -0.9105   -0.3986   -2.8068 C   0  0  0  0  0  0  0  0  0  0  0  0
   -0.1238    0.5369   -3.3219 N   0  0  0  0  0  0  0  0  0  0  0  0
   -1.8252   -1.1983   -3.6185 C   0  0  0  0  0  0  0  0  0  0  0  0
   -2.1068   -1.2144   -4.9844 C   0  0  0  0  0  0  0  0  0  0  0  0
   -1.5945   -0.5391   -5.6629 H   0  0  0  0  0  0  0  0  0  0  0  0
   -3.0629   -2.1224   -5.4402 C   0  0  0  0  0  0  0  0  0  0  0  0
   -3.3061   -2.1592   -6.4989 H   0  0  0  0  0  0  0  0  0  0  0  0
   -3.7216   -2.9926   -4.5518 C   0  0  0  0  0  0  0  0  0  0  0  0
   -4.4626   -3.6870   -4.9393 H   0  0  0  0  0  0  0  0  0  0  0  0
   -3.4386   -2.9777   -3.1858 C   0  0  0  0  0  0  0  0  0  0  0  0
   -3.9426   -3.6456   -2.4937 H   0  0  0  0  0  0  0  0  0  0  0  0
   -2.4814   -2.0708   -2.7310 C   0  0  0  0  0  0  0  0  0  0  0  0
   -1.9452   -1.7811   -1.4032 C   0  0  0  0  0  0  0  0  0  0  0  0
   -2.3383   -2.4242   -0.3065 N   0  0  0  0  0  0  0  0  0  0  0  0
   -1.8540   -2.1588    0.9044 C   0  0  0  0  0  0  0  0  0  0  0  0
   -2.2990   -2.8548    2.1095 C   0  0  0  0  0  0  0  0  0  0  0  0
   -3.2314   -3.8695    2.3266 C   0  0  0  0  0  0  0  0  0  0  0  0
   -3.7851   -4.3000    1.4976 H   0  0  0  0  0  0  0  0  0  0  0  0
   -3.4246   -4.3047    3.6381 C   0  0  0  0  0  0  0  0  0  0  0  0
   -4.1450   -5.0925    3.8422 H   0  0  0  0  0  0  0  0  0  0  0  0
   -2.7019   -3.7403    4.7057 C   0  0  0  0  0  0  0  0  0  0  0  0
   -2.8772   -4.1006    5.7160 H   0  0  0  0  0  0  0  0  0  0  0  0
   -1.7672   -2.7278    4.4872 C   0  0  0  0  0  0  0  0  0  0  0  0
   -1.2042   -2.2862    5.3038 H   0  0  0  0  0  0  0  0  0  0  0  0
   -1.5749   -2.2923    3.1765 C   0  0  0  0  0  0  0  0  0  0  0  0
  1  5  1  0  0  0  0
  2 16  1  0  0  0  0
  3 17  1  0  0  0  0
  5  4  2  0  0  0  0
  5  6  1  0  0  0  0
  6  7  1  0  0  0  0
  7  9  2  0  0  0  0
  7  8  1  0  0  0  0
  9 10  1  0  0  0  0
 11 12  1  0  0  0  0
 11  9  1  0  0  0  0
 13 11  2  0  0  0  0
 14 13  1  0  0  0  0
 15 13  1  0  0  0  0
 15  6  2  0  0  0  0
 16  1  2  0  0  0  0
 16 15  1  0  0  0  0
 17  2  2  0  0  0  0
 18 17  1  0  0  0  0
 19 18  1  0  0  0  0
 19 20  1  0  0  0  0
 21 19  2  0  0  0  0
 22 21  1  0  0  0  0
 23 25  2  0  0  0  0
 23 21  1  0  0  0  0
 24 23  1  0  0  0  0
 25 27  1  0  0  0  0
 26 25  1  0  0  0  0
 27 28  1  0  0  0  0
 27 18  2  0  0  0  0
 28  3  1  0  0  0  0
 29 56  2  0  0  0  0
 29  4  1  0  0  0  0
 30 29  1  0  0  0  0
 31 44  1  0  0  0  0
 32 31  2  0  0  0  0
 33 32  1  0  0  0  0
 33 28  2  0  0  0  0
 34 32  1  0  0  0  0
 34 43  2  0  0  0  0
 35 34  1  0  0  0  0
 36 35  1  0  0  0  0
 37 35  2  0  0  0  0
 37 39  1  0  0  0  0
 38 37  1  0  0  0  0
 39 41  2  0  0  0  0
 40 39  1  0  0  0  0
 41 43  1  0  0  0  0
 41 42  1  0  0  0  0
 43 44  1  0  0  0  0
 44 45  2  0  0  0  0
 45 46  1  0  0  0  0
 46 30  1  0  0  0  0
 46 47  2  0  0  0  0
 47 48  1  0  0  0  0
 47 56  1  0  0  0  0
 48 50  2  0  0  0  0
 49 48  1  0  0  0  0
 50 51  1  0  0  0  0
 50 52  1  0  0  0  0
 52 53  1  0  0  0  0
 54 52  2  0  0  0  0
 54 55  1  0  0  0  0
 56 54  1  0  0  0  0
M  END
