20
04/14/2016 09:27, XYZ structure generated by mol3D Class, molSimplify
Fe 	0.000000	0.000000	0.000000
F 	0.000000	-1.960000	0.000000
N 	0.000001	2.060000	-0.000000
C 	0.000001	3.317115	-0.000000
S 	-0.000239	4.726630	0.000008
N 	2.100000	0.000000	0.000000
H 	2.689009	0.588756	0.588996
H 	2.688853	-0.588756	-0.588996
C 	-3.300850	-0.000438	0.000000
O 	-2.079968	-0.000438	0.000000
O 	-3.981739	-1.164734	-0.000000
H 	-3.519088	-2.014770	-0.000000
C 	0.000244	-0.000363	3.300850
O 	0.000244	-0.000363	2.079968
O 	0.649879	-0.966572	3.981739
H 	1.124168	-1.671988	3.519088
C 	0.000231	-0.000372	-3.300850
O 	0.000231	-0.000372	-2.079968
O 	0.615750	-0.988664	-3.981739
H 	1.065132	-1.710202	-3.519088
