39
04/14/2016 09:27, XYZ structure generated by mol3D Class, molSimplify
Fe 	0.000000	0.000000	0.000000
C 	-2.030000	0.000000	0.000000
H 	-1.535334	0.717180	0.645751
O 	-3.247973	-0.045180	-0.040680
O 	-1.078210	-0.037652	2.659823
N 	-0.000000	-0.000000	2.100000
O 	1.078210	0.037652	2.760968
O 	1.078210	-0.037652	-2.659823
N 	0.000000	-0.000000	-2.100000
O 	-1.078210	0.037652	-2.760968
C 	4.273899	-0.636595	-0.023078
C 	2.964776	-1.065525	-0.038956
N 	2.099998	0.000275	0.000016
C 	2.866053	1.066075	0.038988
N 	4.189625	0.727266	0.030075
H 	4.963052	1.374798	0.059591
H 	5.127786	-1.215546	-0.046174
H 	2.673337	-2.054834	-0.075257
H 	2.513537	2.035364	0.072196
C 	0.442592	-4.273899	0.458147
C 	0.740576	-2.964776	0.767077
N 	-0.000187	-2.099998	-0.000202
C 	-0.740951	-2.866053	-0.767482
N 	-0.503057	-4.189625	-0.526074
H 	-0.949062	-4.963052	-0.996444
H 	0.843645	-5.127786	0.876327
H 	1.428090	-2.673337	1.479380
H 	-1.416187	-2.513537	-1.463672
C 	-0.294592	4.121857	1.172069
C 	-0.003328	4.819538	-0.000232
C 	0.291138	4.122473	-1.171737
C 	0.294493	2.727595	-1.171547
C 	0.000016	2.030000	-0.000000
C 	-0.294461	2.726931	1.171547
H 	-0.521844	4.664865	2.085383
H 	-0.005727	5.906283	-0.000444
H 	0.518190	4.666122	-2.084991
H 	0.526186	2.184544	-2.083661
H 	-0.523853	2.183369	2.084263
