47
04/14/2016 09:27, XYZ structure generated by mol3D Class, molSimplify
Fe 	0.000000	0.000000	0.000000
F 	0.000000	0.000000	1.960000
S 	0.000000	0.000000	-2.270000
H 	0.000000	0.000000	-3.677364
C 	0.000000	2.030000	-0.000003
N 	0.000000	3.143300	-0.000003
H 	-0.000000	4.238700	0.005197
C 	2.030000	0.000003	-0.000002
N 	3.143300	0.000003	-0.000002
H 	4.238700	-0.004588	0.002440
C 	0.000003	-2.030000	-0.000002
N 	0.000003	-3.143300	-0.000002
H 	-0.004588	-4.238700	0.002440
C 	-2.389904	1.878019	2.056289
C 	-3.164064	1.122536	1.162264
P 	-2.309994	0.000756	0.001494
C 	-3.097868	-1.579275	0.473950
C 	-2.483176	-2.323432	1.498582
C 	-3.026553	-3.530930	1.945463
C 	-4.195786	-4.020202	1.372996
C 	-4.822379	-3.298529	0.360392
C 	-4.281264	-2.085395	-0.080960
C 	-2.981219	0.459007	-1.631733
C 	-2.990318	-0.464612	-2.690962
C 	-3.464309	-0.110438	-3.958344
C 	-3.914325	1.183806	-4.200589
C 	-3.875180	2.127362	-3.180351
C 	-3.401189	1.770577	-1.914322
C 	-4.559208	1.269777	1.201474
C 	-5.161079	2.157515	2.097174
C 	-4.376884	2.902680	2.973701
C 	-2.991476	2.760753	2.956074
H 	-1.304910	1.785902	2.060857
H 	-1.572235	-1.960670	1.971834
H 	-2.537596	-4.082249	2.744303
H 	-4.621636	-4.957758	1.720039
H 	-5.740549	-3.674300	-0.083823
H 	-4.813830	-1.541268	-0.856227
H 	-2.623110	-1.478665	-2.540676
H 	-3.472292	-0.846258	-4.758280
H 	-4.278971	1.461570	-5.185723
H 	-4.203203	3.147375	-3.365943
H 	-3.358551	2.546685	-1.152826
H 	-5.195322	0.703977	0.525734
H 	-6.242264	2.264934	2.107391
H 	-4.844977	3.592057	3.670927
H 	-2.376571	3.338385	3.642055
